<?xml version="1.0" encoding="UTF-8"?>

<!-- generated on 2026-03-26T16:21:27.219446+05:30 by Eclipse SUMO netedit 1.26.0
<neteditConfiguration xmlns:xsi="http://www.w3.org/2001/XMLSchema-instance" xsi:noNamespaceSchemaLocation="http://sumo.dlr.de/xsd/neteditConfiguration.xsd">

    <input>
        <sumo-net-file value="C:\Users\29ami\OneDrive\Desktop\mini-project\traffic_ai\network.net.xml"/>
    </input>

    <output>
        <output-file value="C:\Users\29ami\OneDrive\Desktop\mini-project\traffic_ai\network.net.xml"/>
    </output>

    <processing>
        <geometry.min-radius.fix.railways value="false"/>
        <geometry.avoid-overlap value="false"/>
        <geometry.max-grade.fix value="false"/>
        <offset.disable-normalization value="true"/>
        <lefthand value="0"/>
    </processing>

    <junctions>
        <no-internal-links value="false"/>
        <no-turnarounds value="true"/>
        <junctions.corner-detail value="5"/>
        <junctions.limit-turn-speed value="5.50"/>
        <rectangular-lane-cut value="0"/>
    </junctions>

    <pedestrian>
        <walkingareas value="0"/>
    </pedestrian>

</neteditConfiguration>
-->

<net version="1.20" junctionCornerDetail="5" limitTurnSpeed="5.50" avoidOverlap="0" xmlns:xsi="http://www.w3.org/2001/XMLSchema-instance" xsi:noNamespaceSchemaLocation="http://sumo.dlr.de/xsd/net_file.xsd">

    <location netOffset="0.00,0.00" convBoundary="-72.61,-44.14,133.10,54.19" origBoundary="-10000000000.00,-10000000000.00,10000000000.00,10000000000.00" projParameter="!"/>

    <edge id=":J0_w0" function="walkingarea">
        <lane id=":J0_w0_0" index="0" allow="pedestrian" speed="2.78" length="14.80" width="2.00" shape="-72.64,-2.11 -72.65,-4.11 -72.57,12.69 -72.58,10.69"/>
    </edge>
    <edge id=":J1_0" function="internal">
        <lane id=":J1_0_0" index="0" disallow="pedestrian" speed="6.50" length="4.77" shape="93.92,9.38 91.46,9.71 89.70,10.75 89.57,10.96"/>
    </edge>
    <edge id=":J1_1" function="internal">
        <lane id=":J1_1_0" index="0" disallow="pedestrian" speed="13.89" length="20.87" shape="93.92,9.38 73.06,9.24"/>
        <lane id=":J1_1_1" index="1" disallow="pedestrian" speed="13.89" length="20.87" shape="93.94,6.18 73.07,6.04"/>
    </edge>
    <edge id=":J1_3" function="internal">
        <lane id=":J1_3_0" index="0" disallow="pedestrian" speed="9.30" length="4.97" shape="93.94,6.18 89.03,5.44"/>
    </edge>
    <edge id=":J1_16" function="internal">
        <lane id=":J1_16_0" index="0" disallow="pedestrian" speed="6.50" length="4.28" shape="89.57,10.96 88.64,12.50 88.28,14.95"/>
    </edge>
    <edge id=":J1_17" function="internal">
        <lane id=":J1_17_0" index="0" disallow="pedestrian" speed="9.30" length="14.47" shape="89.03,5.44 88.67,5.38 84.91,3.10 82.66,-0.67 81.92,-5.94"/>
    </edge>
    <edge id=":J1_4" function="internal">
        <lane id=":J1_4_0" index="0" disallow="pedestrian" speed="6.56" length="4.89" shape="88.32,-5.93 88.67,-3.45 89.73,-1.67 90.01,-1.51"/>
    </edge>
    <edge id=":J1_5" function="internal">
        <lane id=":J1_5_0" index="0" disallow="pedestrian" speed="13.89" length="20.88" shape="88.32,-5.93 88.28,14.95"/>
        <lane id=":J1_5_1" index="1" disallow="pedestrian" speed="13.89" length="20.88" shape="85.12,-5.93 85.08,14.95"/>
    </edge>
    <edge id=":J1_7" function="internal">
        <lane id=":J1_7_0" index="0" disallow="pedestrian" speed="9.26" length="5.01" shape="85.12,-5.93 84.40,-0.97"/>
    </edge>
    <edge id=":J1_18" function="internal">
        <lane id=":J1_18_0" index="0" disallow="pedestrian" speed="6.56" length="4.27" shape="90.01,-1.51 91.51,-0.60 94.00,-0.22"/>
    </edge>
    <edge id=":J1_19" function="internal">
        <lane id=":J1_19_0" index="0" disallow="pedestrian" speed="9.26" length="14.37" shape="84.40,-0.97 84.36,-0.67 82.10,3.08 78.33,5.32 73.07,6.04"/>
    </edge>
    <edge id=":J1_8" function="internal">
        <lane id=":J1_8_0" index="0" disallow="pedestrian" speed="6.50" length="4.76" shape="73.10,-0.36 75.55,-0.70 77.31,-1.74 77.43,-1.94"/>
    </edge>
    <edge id=":J1_9" function="internal">
        <lane id=":J1_9_0" index="0" disallow="pedestrian" speed="13.89" length="20.89" shape="73.10,-0.36 94.00,-0.22"/>
        <lane id=":J1_9_1" index="1" disallow="pedestrian" speed="13.89" length="20.89" shape="73.08,2.84 93.97,2.98"/>
    </edge>
    <edge id=":J1_11" function="internal">
        <lane id=":J1_11_0" index="0" disallow="pedestrian" speed="9.28" length="5.07" shape="73.08,2.84 78.10,3.58"/>
    </edge>
    <edge id=":J1_20" function="internal">
        <lane id=":J1_20_0" index="0" disallow="pedestrian" speed="6.50" length="4.28" shape="77.43,-1.94 78.36,-3.49 78.72,-5.94"/>
    </edge>
    <edge id=":J1_21" function="internal">
        <lane id=":J1_21_0" index="0" disallow="pedestrian" speed="9.28" length="14.36" shape="78.10,3.58 78.34,3.62 82.09,5.90 84.34,9.67 85.08,14.95"/>
    </edge>
    <edge id=":J1_12" function="internal">
        <lane id=":J1_12_0" index="0" disallow="pedestrian" speed="6.54" length="4.84" shape="78.68,14.94 78.33,12.46 77.28,10.68 77.05,10.54"/>
    </edge>
    <edge id=":J1_13" function="internal">
        <lane id=":J1_13_0" index="0" disallow="pedestrian" speed="13.89" length="20.88" shape="78.68,14.94 78.72,-5.94"/>
        <lane id=":J1_13_1" index="1" disallow="pedestrian" speed="13.89" length="20.88" shape="81.88,14.94 81.92,-5.94"/>
    </edge>
    <edge id=":J1_15" function="internal">
        <lane id=":J1_15_0" index="0" disallow="pedestrian" speed="9.25" length="5.01" shape="81.88,14.94 82.60,9.99"/>
    </edge>
    <edge id=":J1_22" function="internal">
        <lane id=":J1_22_0" index="0" disallow="pedestrian" speed="6.54" length="4.28" shape="77.05,10.54 75.52,9.61 73.06,9.24"/>
    </edge>
    <edge id=":J1_23" function="internal">
        <lane id=":J1_23_0" index="0" disallow="pedestrian" speed="9.25" length="14.42" shape="82.60,9.99 82.65,9.67 84.91,5.92 88.69,3.69 93.97,2.98"/>
    </edge>
    <edge id=":J1_c0" function="crossing" crossingEdges="E0 -E01">
        <lane id=":J1_c0_0" index="0" allow="pedestrian" speed="2.78" length="12.80" width="4.00" shape="92.01,-1.84 91.90,10.96" outlineShape="94.01,-1.82 93.90,10.98 93.90,11.08 93.90,10.98 92.68,11.08 91.67,11.40 90.89,11.95 90.33,12.73 90.22,13.06 89.90,10.94 90.01,-1.86 90.28,-3.94 90.37,-3.66 90.94,-2.87 91.73,-2.29 92.76,-1.95"/>
    </edge>
    <edge id=":J1_c1" function="crossing" crossingEdges="E4 -E4">
        <lane id=":J1_c1_0" index="0" allow="pedestrian" speed="2.78" length="12.80" width="4.00" shape="77.11,-3.94 89.91,-3.92" outlineShape="77.12,-5.94 89.92,-5.92 90.03,-4.68 90.37,-3.66 90.94,-2.87 91.73,-2.29 92.01,-2.20 89.91,-1.92 77.11,-1.94 75.00,-2.28 75.33,-2.39 76.11,-2.94 76.67,-3.72 77.00,-4.72"/>
    </edge>
    <edge id=":J1_c2" function="crossing" crossingEdges="-E0 E0.54">
        <lane id=":J1_c2_0" index="0" allow="pedestrian" speed="2.78" length="12.80" width="4.00" shape="75.05,10.85 75.11,-1.95" outlineShape="73.05,10.84 73.11,-1.96 74.33,-2.06 75.33,-2.39 76.11,-2.94 76.67,-3.72 76.78,-4.05 77.11,-1.94 77.05,10.86 76.73,12.96 76.64,12.67 76.08,11.88 75.29,11.31 74.28,10.96"/>
    </edge>
    <edge id=":J1_c3" function="crossing" crossingEdges="E2 -E2">
        <lane id=":J1_c3_0" index="0" allow="pedestrian" speed="2.78" length="12.80" width="4.00" shape="89.89,12.96 77.09,12.94" outlineShape="89.88,14.96 77.08,14.94 76.98,14.94 77.08,14.94 76.97,13.69 76.64,12.67 76.08,11.88 75.29,11.31 75.00,11.21 77.09,10.94 89.89,10.96 92.00,11.30 91.67,11.40 90.89,11.95 90.33,12.73 90.00,13.73"/>
    </edge>
    <edge id=":J1_w0" function="walkingarea">
        <lane id=":J1_w0_0" index="0" allow="pedestrian" speed="2.78" length="3.30" width="4.00" shape="89.88,14.96 91.88,14.96 93.89,12.98 93.90,10.98 92.68,11.08 91.67,11.40 90.89,11.95 90.33,12.73 90.00,13.73"/>
    </edge>
    <edge id=":J1_w1" function="walkingarea">
        <lane id=":J1_w1_0" index="0" allow="pedestrian" speed="2.78" length="3.38" width="4.00" shape="94.01,-1.82 94.03,-3.82 91.92,-5.92 89.92,-5.92 90.03,-4.68 90.37,-3.66 90.94,-2.87 91.73,-2.29 92.76,-1.95"/>
    </edge>
    <edge id=":J1_w2" function="walkingarea">
        <lane id=":J1_w2_0" index="0" allow="pedestrian" speed="2.78" length="3.30" width="4.00" shape="77.12,-5.94 75.12,-5.95 73.11,-3.96 73.11,-1.96 74.33,-2.06 75.33,-2.39 76.11,-2.94 76.67,-3.72 77.00,-4.72"/>
    </edge>
    <edge id=":J1_w3" function="walkingarea">
        <lane id=":J1_w3_0" index="0" allow="pedestrian" speed="2.78" length="3.35" width="4.00" shape="73.05,10.84 73.04,12.84 75.08,14.93 77.08,14.94 76.97,13.69 76.64,12.67 76.08,11.88 75.29,11.31 74.28,10.96"/>
    </edge>
    <edge id=":J2_w0" function="walkingarea">
        <lane id=":J2_w0_0" index="0" allow="pedestrian" speed="2.78" length="14.80" width="2.00" shape="-24.97,52.61 -26.97,52.60 -10.17,52.72 -12.17,52.71"/>
    </edge>
    <edge id=":J3_w0" function="walkingarea">
        <lane id=":J3_w0_0" index="0" allow="pedestrian" speed="2.78" length="14.80" width="2.00" shape="-11.69,-43.48 -9.69,-43.48 -26.49,-43.52 -24.49,-43.52"/>
    </edge>
    <edge id=":J4_w0" function="walkingarea">
        <lane id=":J4_w0_0" index="0" allow="pedestrian" speed="2.78" length="14.80" width="2.00" shape="133.05,11.30 133.03,13.30 133.17,-3.50 133.15,-1.50"/>
    </edge>
    <edge id=":J5_w0" function="walkingarea">
        <lane id=":J5_w0_0" index="0" allow="pedestrian" speed="2.78" length="14.80" width="2.00" shape="77.02,54.18 75.02,54.18 91.82,54.20 89.82,54.20"/>
    </edge>
    <edge id=":J6_w0" function="walkingarea">
        <lane id=":J6_w0_0" index="0" allow="pedestrian" speed="2.78" length="14.80" width="2.00" shape="89.98,-44.13 91.98,-44.13 75.18,-44.15 77.18,-44.15"/>
    </edge>
    <edge id=":J7_0" function="internal">
        <lane id=":J7_0_0" index="0" disallow="pedestrian" speed="6.55" length="4.87" shape="-7.86,8.89 -10.31,9.23 -12.07,10.30 -12.24,10.58"/>
    </edge>
    <edge id=":J7_1" function="internal">
        <lane id=":J7_1_0" index="0" disallow="pedestrian" speed="13.89" length="20.86" shape="-7.86,8.89 -28.70,8.89"/>
        <lane id=":J7_1_1" index="1" disallow="pedestrian" speed="13.89" length="20.86" shape="-7.84,5.69 -28.71,5.69"/>
    </edge>
    <edge id=":J7_3" function="internal">
        <lane id=":J7_3_0" index="0" disallow="pedestrian" speed="9.26" length="4.86" shape="-7.84,5.69 -12.65,4.98"/>
    </edge>
    <edge id=":J7_16" function="internal">
        <lane id=":J7_16_0" index="0" disallow="pedestrian" speed="6.55" length="4.26" shape="-12.24,10.58 -13.13,12.08 -13.50,14.57"/>
    </edge>
    <edge id=":J7_17" function="internal">
        <lane id=":J7_17_0" index="0" disallow="pedestrian" speed="9.26" length="14.47" shape="-12.65,4.98 -13.08,4.91 -16.82,2.65 -19.06,-1.10 -19.79,-6.35"/>
    </edge>
    <edge id=":J7_4" function="internal">
        <lane id=":J7_4_0" index="0" disallow="pedestrian" speed="6.51" length="4.74" shape="-13.39,-6.33 -13.05,-3.88 -12.00,-2.13 -11.81,-2.01"/>
    </edge>
    <edge id=":J7_5" function="internal">
        <lane id=":J7_5_0" index="0" disallow="pedestrian" speed="13.89" length="20.90" shape="-13.39,-6.33 -13.50,14.57"/>
        <lane id=":J7_5_1" index="1" disallow="pedestrian" speed="13.89" length="20.90" shape="-16.59,-6.34 -16.70,14.55"/>
    </edge>
    <edge id=":J7_7" function="internal">
        <lane id=":J7_7_0" index="0" disallow="pedestrian" speed="9.30" length="5.05" shape="-16.59,-6.34 -17.33,-1.34"/>
    </edge>
    <edge id=":J7_18" function="internal">
        <lane id=":J7_18_0" index="0" disallow="pedestrian" speed="6.51" length="4.28" shape="-11.81,-2.01 -10.26,-1.07 -7.81,-0.71"/>
    </edge>
    <edge id=":J7_19" function="internal">
        <lane id=":J7_19_0" index="0" disallow="pedestrian" speed="9.30" length="14.39" shape="-17.33,-1.34 -17.36,-1.10 -19.64,2.65 -23.42,4.92 -28.71,5.69"/>
    </edge>
    <edge id=":J7_8" function="internal">
        <lane id=":J7_8_0" index="0" disallow="pedestrian" speed="6.57" length="4.89" shape="-28.74,-0.71 -26.23,-1.07 -24.44,-2.14 -24.30,-2.36"/>
    </edge>
    <edge id=":J7_9" function="internal">
        <lane id=":J7_9_0" index="0" disallow="pedestrian" speed="13.89" length="20.91" shape="-28.74,-0.71 -7.81,-0.71"/>
        <lane id=":J7_9_1" index="1" disallow="pedestrian" speed="13.89" length="20.91" shape="-28.73,2.49 -7.83,2.49"/>
    </edge>
    <edge id=":J7_11" function="internal">
        <lane id=":J7_11_0" index="0" disallow="pedestrian" speed="9.25" length="5.16" shape="-28.73,2.49 -23.61,3.20"/>
    </edge>
    <edge id=":J7_20" function="internal">
        <lane id=":J7_20_0" index="0" disallow="pedestrian" speed="6.57" length="4.29" shape="-24.30,-2.36 -23.36,-3.90 -22.99,-6.36"/>
    </edge>
    <edge id=":J7_21" function="internal">
        <lane id=":J7_21_0" index="0" disallow="pedestrian" speed="9.25" length="14.32" shape="-23.61,3.20 -23.43,3.22 -19.66,5.48 -17.41,9.25 -16.70,14.55"/>
    </edge>
    <edge id=":J7_12" function="internal">
        <lane id=":J7_12_0" index="0" disallow="pedestrian" speed="6.49" length="4.79" shape="-23.10,14.50 -23.43,12.04 -24.48,10.28 -24.69,10.15"/>
    </edge>
    <edge id=":J7_13" function="internal">
        <lane id=":J7_13_0" index="0" disallow="pedestrian" speed="13.89" length="20.87" shape="-23.10,14.50 -22.99,-6.36"/>
        <lane id=":J7_13_1" index="1" disallow="pedestrian" speed="13.89" length="20.87" shape="-19.90,14.53 -19.79,-6.35"/>
    </edge>
    <edge id=":J7_15" function="internal">
        <lane id=":J7_15_0" index="0" disallow="pedestrian" speed="9.29" length="4.98" shape="-19.90,14.53 -19.16,9.60"/>
    </edge>
    <edge id=":J7_22" function="internal">
        <lane id=":J7_22_0" index="0" disallow="pedestrian" speed="6.49" length="4.28" shape="-24.69,10.15 -26.23,9.23 -28.70,8.89"/>
    </edge>
    <edge id=":J7_23" function="internal">
        <lane id=":J7_23_0" index="0" disallow="pedestrian" speed="9.29" length="14.44" shape="-19.16,9.60 -19.11,9.24 -16.83,5.47 -13.07,3.22 -7.83,2.49"/>
    </edge>
    <edge id=":J7_c0" function="crossing" crossingEdges="E0.54 -E0">
        <lane id=":J7_c0_0" index="0" allow="pedestrian" speed="2.78" length="12.80" width="4.00" shape="-9.81,-2.32 -9.86,10.48" outlineShape="-7.81,-2.31 -7.86,10.49 -9.09,10.59 -10.09,10.93 -10.87,11.50 -11.43,12.30 -11.78,13.33 -11.88,14.42 -11.79,-6.33 -11.68,-5.11 -11.35,-4.11 -10.80,-3.33 -10.03,-2.77 -9.03,-2.43"/>
    </edge>
    <edge id=":J7_c1" function="crossing" crossingEdges="E1.39 -E1">
        <lane id=":J7_c1_0" index="0" allow="pedestrian" speed="2.78" length="12.80" width="4.00" shape="-24.60,-4.36 -11.80,-4.33" outlineShape="-24.59,-6.36 -11.79,-6.33 -7.81,-2.31 -7.80,-4.31 -9.79,-6.32 -11.79,-6.33 -7.80,-2.32 -28.09,-2.37 -27.48,-2.43 -26.44,-2.77 -25.64,-3.33 -25.06,-4.12 -24.71,-5.13"/>
    </edge>
    <edge id=":J7_c2" function="crossing" crossingEdges="-E00 E3">
        <lane id=":J7_c2_0" index="0" allow="pedestrian" speed="2.78" length="12.80" width="4.00" shape="-26.69,10.48 -26.75,-2.32" outlineShape="-28.69,10.49 -28.75,-2.31 -27.48,-2.43 -26.44,-2.77 -25.64,-3.33 -25.06,-4.12 -24.96,-4.40 -24.75,-2.33 -24.69,10.47 -25.02,12.58 -25.13,12.26 -25.68,11.48 -26.46,10.92 -27.46,10.59"/>
    </edge>
    <edge id=":J7_c3" function="crossing" crossingEdges="-E10 E1">
        <lane id=":J7_c3_0" index="0" allow="pedestrian" speed="2.78" length="12.80" width="4.00" shape="-11.88,12.59 -24.68,12.49" outlineShape="-11.90,14.59 -24.80,14.49 -24.80,13.26 -25.13,12.26 -25.68,11.48 -26.46,10.92 -26.78,10.82 -24.67,10.49 -11.87,10.59 -9.79,10.83 -10.09,10.93 -10.87,11.50 -11.43,12.30 -11.78,13.33"/>
    </edge>
    <edge id=":J7_w0" function="walkingarea">
        <lane id=":J7_w0_0" index="0" allow="pedestrian" speed="2.78" length="3.36" width="4.00" shape="-11.90,14.59 -9.90,14.60 -7.87,12.49 -7.86,10.49 -9.09,10.59 -10.09,10.93 -10.87,11.50 -11.43,12.30 -11.78,13.33"/>
    </edge>
    <edge id=":J7_w1" function="walkingarea">
        <lane id=":J7_w1_0" index="0" allow="pedestrian" speed="2.78" length="3.30" width="4.00" shape="-7.81,-2.31 -7.80,-4.31 -9.79,-6.32 -11.79,-6.33 -11.68,-5.11 -11.35,-4.11 -10.80,-3.33 -10.03,-2.77 -9.03,-2.43"/>
    </edge>
    <edge id=":J7_w2" function="walkingarea">
        <lane id=":J7_w2_0" index="0" allow="pedestrian" speed="2.78" length="3.39" width="4.00" shape="-24.59,-6.36 -26.59,-6.37 -28.76,-4.31 -28.75,-2.31 -27.48,-2.43 -26.44,-2.77 -25.64,-3.33 -25.06,-4.12 -24.71,-5.13"/>
    </edge>
    <edge id=":J7_w3" function="walkingarea">
        <lane id=":J7_w3_0" index="0" allow="pedestrian" speed="2.78" length="3.30" width="4.00" shape="-28.69,10.49 -28.68,12.49 -26.70,14.48 -24.70,14.49 -24.80,13.26 -25.13,12.26 -25.68,11.48 -26.46,10.92 -27.46,10.59"/>
    </edge>

    <edge id="-E0" from="J1" to="J7" priority="-1" shape="83.50,4.49 -18.22,4.04">
        <lane id="-E0_0" index="0" allow="pedestrian" speed="13.89" length="80.91" width="2.00" shape="73.04,11.84 -7.87,11.49"/>
        <lane id="-E0_1" index="1" disallow="pedestrian" speed="13.89" length="80.91" shape="73.06,9.24 -7.86,8.89"/>
        <lane id="-E0_2" index="2" disallow="pedestrian" speed="13.89" length="80.91" shape="73.07,6.04 -7.84,5.69"/>
    </edge>
    <edge id="-E00" from="J7" to="J0" priority="-1" shape="-18.22,4.04 -72.61,4.29">
        <lane id="-E00_0" index="0" allow="pedestrian" speed="13.89" length="43.89" width="2.00" shape="-28.69,11.49 -72.58,11.69"/>
        <lane id="-E00_1" index="1" disallow="pedestrian" speed="13.89" length="43.89" shape="-28.70,8.89 -72.59,9.09"/>
        <lane id="-E00_2" index="2" disallow="pedestrian" speed="13.89" length="43.89" shape="-28.71,5.69 -72.60,5.89"/>
    </edge>
    <edge id="-E01" from="J4" to="J1" priority="-1">
        <lane id="-E01_0" index="0" allow="pedestrian" speed="13.89" length="39.15" width="2.00" shape="133.04,12.30 93.89,11.98"/>
        <lane id="-E01_1" index="1" disallow="pedestrian" speed="13.89" length="39.15" shape="133.06,9.70 93.92,9.38"/>
        <lane id="-E01_2" index="2" disallow="pedestrian" speed="13.89" length="39.15" shape="133.09,6.50 93.94,6.18"/>
    </edge>
    <edge id="-E1" from="J3" to="J7" priority="-1" shape="-18.09,-43.50 -18.22,4.04">
        <lane id="-E1_0" index="0" allow="pedestrian" speed="13.89" length="37.15" width="2.00" shape="-10.69,-43.48 -10.79,-6.33"/>
        <lane id="-E1_1" index="1" disallow="pedestrian" speed="13.89" length="37.15" shape="-13.29,-43.49 -13.39,-6.33"/>
        <lane id="-E1_2" index="2" disallow="pedestrian" speed="13.89" length="37.15" shape="-16.49,-43.50 -16.59,-6.34"/>
    </edge>
    <edge id="-E10" from="J7" to="J2" priority="-1" shape="-18.22,4.04 -18.57,52.66">
        <lane id="-E10_0" index="0" allow="pedestrian" speed="13.89" length="38.12" width="2.00" shape="-10.90,14.59 -11.17,52.71"/>
        <lane id="-E10_1" index="1" disallow="pedestrian" speed="13.89" length="38.12" shape="-13.50,14.57 -13.77,52.69"/>
        <lane id="-E10_2" index="2" disallow="pedestrian" speed="13.89" length="38.12" shape="-16.70,14.55 -16.97,52.67"/>
    </edge>
    <edge id="-E2" from="J5" to="J1" priority="-1">
        <lane id="-E2_0" index="0" allow="pedestrian" speed="13.89" length="39.24" width="2.00" shape="76.02,54.18 76.08,14.93"/>
        <lane id="-E2_1" index="1" disallow="pedestrian" speed="13.89" length="39.24" shape="78.62,54.18 78.68,14.94"/>
        <lane id="-E2_2" index="2" disallow="pedestrian" speed="13.89" length="39.24" shape="81.82,54.19 81.88,14.94"/>
    </edge>
    <edge id="-E4" from="J6" to="J1" priority="-1">
        <lane id="-E4_0" index="0" allow="pedestrian" speed="13.89" length="38.21" width="2.00" shape="90.98,-44.13 90.92,-5.92"/>
        <lane id="-E4_1" index="1" disallow="pedestrian" speed="13.89" length="38.21" shape="88.38,-44.13 88.32,-5.93"/>
        <lane id="-E4_2" index="2" disallow="pedestrian" speed="13.89" length="38.21" shape="85.18,-44.14 85.12,-5.93"/>
    </edge>
    <edge id="E0" from="J1" to="J4" priority="-1">
        <lane id="E0_0" index="0" allow="pedestrian" speed="13.89" length="39.15" width="2.00" shape="94.02,-2.82 133.16,-2.50"/>
        <lane id="E0_1" index="1" disallow="pedestrian" speed="13.89" length="39.15" shape="94.00,-0.22 133.14,0.10"/>
        <lane id="E0_2" index="2" disallow="pedestrian" speed="13.89" length="39.15" shape="93.97,2.98 133.11,3.30"/>
    </edge>
    <edge id="E0.54" from="J7" to="J1" priority="-1" shape="-18.22,4.04 83.50,4.49">
        <lane id="E0.54_0" index="0" allow="pedestrian" speed="13.89" length="80.91" width="2.00" shape="-7.80,-3.31 73.11,-2.96"/>
        <lane id="E0.54_1" index="1" disallow="pedestrian" speed="13.89" length="80.91" shape="-7.81,-0.71 73.10,-0.36"/>
        <lane id="E0.54_2" index="2" disallow="pedestrian" speed="13.89" length="80.91" shape="-7.83,2.49 73.08,2.84"/>
    </edge>
    <edge id="E1" from="J2" to="J7" priority="-1" shape="-18.57,52.66 -18.22,4.04">
        <lane id="E1_0" index="0" allow="pedestrian" speed="13.89" length="38.12" width="2.00" shape="-25.97,52.61 -25.70,14.49"/>
        <lane id="E1_1" index="1" disallow="pedestrian" speed="13.89" length="38.12" shape="-23.37,52.63 -23.10,14.50"/>
        <lane id="E1_2" index="2" disallow="pedestrian" speed="13.89" length="38.12" shape="-20.17,52.65 -19.90,14.53"/>
    </edge>
    <edge id="E1.39" from="J7" to="J3" priority="-1" shape="-18.22,4.04 -18.09,-43.50">
        <lane id="E1.39_0" index="0" allow="pedestrian" speed="13.89" length="37.15" width="2.00" shape="-25.59,-6.37 -25.49,-43.52"/>
        <lane id="E1.39_1" index="1" disallow="pedestrian" speed="13.89" length="37.15" shape="-22.99,-6.36 -22.89,-43.51"/>
        <lane id="E1.39_2" index="2" disallow="pedestrian" speed="13.89" length="37.15" shape="-19.79,-6.35 -19.69,-43.50"/>
    </edge>
    <edge id="E2" from="J1" to="J5" priority="-1">
        <lane id="E2_0" index="0" allow="pedestrian" speed="13.89" length="39.24" width="2.00" shape="90.88,14.96 90.82,54.20"/>
        <lane id="E2_1" index="1" disallow="pedestrian" speed="13.89" length="39.24" shape="88.28,14.95 88.22,54.20"/>
        <lane id="E2_2" index="2" disallow="pedestrian" speed="13.89" length="39.24" shape="85.08,14.95 85.02,54.19"/>
    </edge>
    <edge id="E3" from="J0" to="J7" priority="-1" shape="-72.61,4.29 -18.22,4.04">
        <lane id="E3_0" index="0" allow="pedestrian" speed="13.89" length="43.89" width="2.00" shape="-72.64,-3.11 -28.75,-3.31"/>
        <lane id="E3_1" index="1" disallow="pedestrian" speed="13.89" length="43.89" shape="-72.63,-0.51 -28.74,-0.71"/>
        <lane id="E3_2" index="2" disallow="pedestrian" speed="13.89" length="43.89" shape="-72.62,2.69 -28.73,2.49"/>
    </edge>
    <edge id="E4" from="J1" to="J6" priority="-1">
        <lane id="E4_0" index="0" allow="pedestrian" speed="13.89" length="38.21" width="2.00" shape="76.12,-5.95 76.18,-44.15"/>
        <lane id="E4_1" index="1" disallow="pedestrian" speed="13.89" length="38.21" shape="78.72,-5.94 78.78,-44.15"/>
        <lane id="E4_2" index="2" disallow="pedestrian" speed="13.89" length="38.21" shape="81.92,-5.94 81.98,-44.14"/>
    </edge>

    <tlLogic id="J1" type="static" programID="0" offset="0">
        <phase duration="37" state="gGGgrrrrgGGgrrrrrGrG"/>
        <phase duration="5"  state="gGGgrrrrgGGgrrrrrrrr"/>
        <phase duration="3"  state="yyyyrrrryyyyrrrrrrrr"/>
        <phase duration="37" state="rrrrgGGgrrrrgGGgGrGr"/>
        <phase duration="5"  state="rrrrgGGgrrrrgGGgrrrr"/>
        <phase duration="3"  state="rrrryyyyrrrryyyyrrrr"/>
    </tlLogic>
    <tlLogic id="J7" type="static" programID="0" offset="0">
        <phase duration="37" state="gGGgrrrrgGGgrrrrrGrG"/>
        <phase duration="5"  state="gGGgrrrrgGGgrrrrrrrr"/>
        <phase duration="3"  state="yyyyrrrryyyyrrrrrrrr"/>
        <phase duration="37" state="rrrrgGGgrrrrgGGgGrGr"/>
        <phase duration="5"  state="rrrrgGGgrrrrgGGgrrrr"/>
        <phase duration="3"  state="rrrryyyyrrrryyyyrrrr"/>
    </tlLogic>

    <junction id="J0" type="dead_end" x="-72.61" y="4.29" incLanes="-E00_0 -E00_1 -E00_2" intLanes="" shape="-72.61,4.29 -72.57,12.69 -72.61,4.29"/>
    <junction id="J1" type="traffic_light" x="83.50" y="4.49" incLanes="-E01_0 -E01_1 -E01_2 -E4_0 -E4_1 -E4_2 E0.54_0 E0.54_1 E0.54_2 -E2_0 -E2_1 -E2_2 :J1_w1_0 :J1_w2_0 :J1_w3_0 :J1_w0_0" intLanes=":J1_16_0 :J1_1_0 :J1_1_1 :J1_17_0 :J1_18_0 :J1_5_0 :J1_5_1 :J1_19_0 :J1_20_0 :J1_9_0 :J1_9_1 :J1_21_0 :J1_22_0 :J1_13_0 :J1_13_1 :J1_23_0 :J1_c0_0 :J1_c1_0 :J1_c2_0 :J1_c3_0" shape="93.89,12.98 94.03,-3.82 92.85,-4.06 92.44,-4.36 92.15,-4.76 91.97,-5.28 91.92,-5.92 75.12,-5.95 74.89,-4.84 74.61,-4.45 74.23,-4.17 73.73,-4.01 73.11,-3.96 73.04,12.84 74.18,13.08 74.57,13.37 74.86,13.78 75.03,14.30 75.08,14.93 91.88,14.96 92.11,13.85 92.39,13.46 92.77,13.19 93.28,13.03">
        <request index="0"  response="10010000000001100000" foes="10010000000001100000" cont="1"/>
        <request index="1"  response="01011111000011100000" foes="01011111100011100000" cont="0"/>
        <request index="2"  response="01011111000011100000" foes="01011111100011100000" cont="0"/>
        <request index="3"  response="00111110011011100000" foes="00111110011011100000" cont="1"/>
        <request index="4"  response="00110000000000000000" foes="00110000011000000000" cont="1"/>
        <request index="5"  response="10100000000000001001" foes="10101000111000001111" cont="0"/>
        <request index="6"  response="10100000100000001000" foes="10101000111000001111" cont="0"/>
        <request index="7"  response="01100110100000001000" foes="01100110111000001110" cont="1"/>
        <request index="8"  response="01100110000000000000" foes="01100110000000000000" cont="1"/>
        <request index="9"  response="01011110000011110000" foes="01011110000011111000" cont="0"/>
        <request index="10" response="01011110000011110000" foes="01011110000011111000" cont="0"/>
        <request index="11" response="11001110000011100110" foes="11001110000011100110" cont="1"/>
        <request index="12" response="11000000000000000000" foes="11000000000000000110" cont="1"/>
        <request index="13" response="10100000100100000000" foes="10100000111110001110" cont="0"/>
        <request index="14" response="10100000100000001000" foes="10100000111110001110" cont="0"/>
        <request index="15" response="10010000100001101000" foes="10010000111001101110" cont="1"/>
        <request index="16" response="00000000000000000000" foes="00001000011000011111" cont="0"/>
        <request index="17" response="00000000000000000000" foes="00000110000111111000" cont="0"/>
        <request index="18" response="00000000000000000000" foes="00000001111110000110" cont="0"/>
        <request index="19" response="00000000000000000000" foes="00001111100001100001" cont="0"/>
    </junction>
    <junction id="J2" type="dead_end" x="-18.57" y="52.66" incLanes="-E10_0 -E10_1 -E10_2" intLanes="" shape="-18.57,52.66 -10.17,52.72 -18.57,52.66"/>
    <junction id="J3" type="dead_end" x="-18.09" y="-43.50" incLanes="E1.39_0 E1.39_1 E1.39_2" intLanes="" shape="-18.09,-43.50 -26.49,-43.52 -18.09,-43.50"/>
    <junction id="J4" type="dead_end" x="133.10" y="4.90" incLanes="E0_0 E0_1 E0_2" intLanes="" shape="133.10,4.90 133.17,-3.50 133.10,4.90"/>
    <junction id="J5" type="dead_end" x="83.42" y="54.19" incLanes="E2_0 E2_1 E2_2" intLanes="" shape="83.42,54.19 91.82,54.20 83.42,54.19"/>
    <junction id="J6" type="dead_end" x="83.58" y="-44.14" incLanes="E4_0 E4_1 E4_2" intLanes="" shape="83.58,-44.14 75.18,-44.15 83.58,-44.14"/>
    <junction id="J7" type="traffic_light" x="-18.42" y="4.04" incLanes="-E0_0 -E0_1 -E0_2 -E1_0 -E1_1 -E1_2 E3_0 E3_1 E3_2 E1_0 E1_1 E1_2 :J7_w1_0 :J7_w2_0 :J7_w3_0 :J7_w0_0" intLanes=":J7_16_0 :J7_1_0 :J7_1_1 :J7_17_0 :J7_18_0 :J7_5_0 :J7_5_1 :J7_19_0 :J7_20_0 :J7_9_0 :J7_9_1 :J7_21_0 :J7_22_0 :J7_13_0 :J7_13_1 :J7_23_0 :J7_c0_0 :J7_c1_0 :J7_c2_0 :J7_c3_0" shape="-7.87,12.49 -7.80,-4.31 -8.91,-4.54 -9.30,-4.82 -9.57,-5.21 -9.74,-5.71 -9.79,-6.32 -26.59,-6.37 -26.83,-5.23 -27.14,-4.83 -27.56,-4.54 -28.10,-4.37 -28.76,-4.31 -28.68,12.49 -27.57,12.71 -27.18,12.98 -26.91,13.37 -26.75,13.87 -26.70,14.48 -9.90,14.60 -9.66,13.42 -9.38,13.01 -8.99,12.72 -8.49,12.54">
        <request index="0"  response="10010000000001100000" foes="10010000000001100000" cont="1"/>
        <request index="1"  response="01011111000011100000" foes="01011111100011100000" cont="0"/>
        <request index="2"  response="01011111000011100000" foes="01011111100011100000" cont="0"/>
        <request index="3"  response="00111110011011100000" foes="00111110011011100000" cont="1"/>
        <request index="4"  response="00110000000000000000" foes="00110000011000000000" cont="1"/>
        <request index="5"  response="10100000000000001001" foes="10101000111000001111" cont="0"/>
        <request index="6"  response="10100000100000001000" foes="10101000111000001111" cont="0"/>
        <request index="7"  response="01100110100000001000" foes="01100110111000001110" cont="1"/>
        <request index="8"  response="01100110000000000000" foes="01100110000000000000" cont="1"/>
        <request index="9"  response="01011110000011110000" foes="01011110000011111000" cont="0"/>
        <request index="10" response="01011110000011110000" foes="01011110000011111000" cont="0"/>
        <request index="11" response="11001110000011100110" foes="11001110000011100110" cont="1"/>
        <request index="12" response="11000000000000000000" foes="11000000000000000110" cont="1"/>
        <request index="13" response="10100000100100000000" foes="10100000111110001110" cont="0"/>
        <request index="14" response="10100000100000001000" foes="10100000111110001110" cont="0"/>
        <request index="15" response="10010000100001101000" foes="10010000111001101110" cont="1"/>