<?xml version="1.0" encoding="UTF-8"?>

<!-- generated on 2026-03-23T21:43:11.727280+05:30 by Eclipse SUMO netedit 1.26.0
<neteditConfiguration xmlns:xsi="http://www.w3.org/2001/XMLSchema-instance" xsi:noNamespaceSchemaLocation="http://sumo.dlr.de/xsd/neteditConfiguration.xsd">

    <input>
        <sumo-net-file value="C:\Users\29ami\OneDrive\Desktop\mini-project\traffic_ai\network.net.xml"/>
    </input>

    <output>
        <output-file value="C:\Users\29ami\OneDrive\Desktop\mini-project\traffic_ai\network.net.xml"/>
    </output>

    <processing>
        <geometry.min-radius.fix.railways value="false"/>
        <geometry.avoid-overlap value="false"/>
        <geometry.max-grade.fix value="false"/>
        <offset.disable-normalization value="true"/>
        <lefthand value="0"/>
    </processing>

    <junctions>
        <no-internal-links value="false"/>
        <no-turnarounds value="true"/>
        <junctions.corner-detail value="5"/>
        <junctions.limit-turn-speed value="5.50"/>
        <rectangular-lane-cut value="0"/>
    </junctions>

    <pedestrian>
        <walkingareas value="0"/>
    </pedestrian>

</neteditConfiguration>
-->

<net version="1.20" junctionCornerDetail="5" limitTurnSpeed="5.50" avoidOverlap="0" xmlns:xsi="http://www.w3.org/2001/XMLSchema-instance" xsi:noNamespaceSchemaLocation="http://sumo.dlr.de/xsd/net_file.xsd">

    <location netOffset="0.00,0.00" convBoundary="-72.61,-34.66,86.82,44.07" origBoundary="-10000000000.00,-10000000000.00,10000000000.00,10000000000.00" projParameter="!"/>

    <edge id=":J0_w0" function="walkingarea">
        <lane id=":J0_w0_0" index="0" allow="pedestrian" speed="2.78" length="14.80" width="2.00" shape="-72.64,-2.11 -72.65,-4.11 -72.57,12.69 -72.58,10.69"/>
    </edge>
    <edge id=":J1_0" function="internal">
        <lane id=":J1_0_0" index="0" disallow="pedestrian" speed="6.52" length="4.79" shape="49.82,9.55 47.35,9.88 45.57,10.92 45.45,11.12"/>
    </edge>
    <edge id=":J1_1" function="internal">
        <lane id=":J1_1_0" index="0" disallow="pedestrian" speed="13.89" length="20.84" shape="49.82,9.55 28.98,9.35"/>
        <lane id=":J1_1_1" index="1" disallow="pedestrian" speed="13.89" length="20.84" shape="49.85,6.35 29.02,6.15"/>
    </edge>
    <edge id=":J1_3" function="internal">
        <lane id=":J1_3_0" index="0" disallow="pedestrian" speed="9.25" length="5.04" shape="49.85,6.35 44.87,5.59"/>
    </edge>
    <edge id=":J1_16" function="internal">
        <lane id=":J1_16_0" index="0" disallow="pedestrian" speed="6.52" length="4.29" shape="45.45,11.12 44.50,12.66 44.13,15.11"/>
    </edge>
    <edge id=":J1_17" function="internal">
        <lane id=":J1_17_0" index="0" disallow="pedestrian" speed="9.25" length="14.40" shape="44.87,5.59 44.58,5.55 40.84,3.25 38.64,-0.54 37.98,-5.83"/>
    </edge>
    <edge id=":J1_4" function="internal">
        <lane id=":J1_4_0" index="0" disallow="pedestrian" speed="6.50" length="4.77" shape="44.37,-5.72 44.68,-3.26 45.71,-1.49 45.92,-1.36"/>
    </edge>
    <edge id=":J1_5" function="internal">
        <lane id=":J1_5_0" index="0" disallow="pedestrian" speed="13.89" length="20.85" shape="44.37,-5.72 44.13,15.11"/>
        <lane id=":J1_5_1" index="1" disallow="pedestrian" speed="13.89" length="20.85" shape="41.17,-5.78 40.93,15.09"/>
    </edge>
    <edge id=":J1_7" function="internal">
        <lane id=":J1_7_0" index="0" disallow="pedestrian" speed="9.29" length="4.89" shape="41.17,-5.78 40.41,-0.95"/>
    </edge>
    <edge id=":J1_18" function="internal">
        <lane id=":J1_18_0" index="0" disallow="pedestrian" speed="6.50" length="4.28" shape="45.92,-1.36 47.45,-0.42 49.91,-0.05"/>
    </edge>
    <edge id=":J1_19" function="internal">
        <lane id=":J1_19_0" index="0" disallow="pedestrian" speed="9.29" length="14.51" shape="40.41,-0.95 40.34,-0.51 38.03,3.23 34.26,5.45 29.02,6.15"/>
    </edge>
    <edge id=":J1_8" function="internal">
        <lane id=":J1_8_0" index="0" disallow="pedestrian" speed="6.55" length="4.85" shape="29.09,-0.25 31.54,-0.58 33.31,-1.63 33.47,-1.91"/>
    </edge>
    <edge id=":J1_9" function="internal">
        <lane id=":J1_9_0" index="0" disallow="pedestrian" speed="13.89" length="20.83" shape="29.09,-0.25 49.91,-0.05"/>
        <lane id=":J1_9_1" index="1" disallow="pedestrian" speed="13.89" length="20.83" shape="29.05,2.95 49.88,3.15"/>
    </edge>
    <edge id=":J1_11" function="internal">
        <lane id=":J1_11_0" index="0" disallow="pedestrian" speed="9.27" length="4.96" shape="29.05,2.95 33.96,3.71"/>
    </edge>
    <edge id=":J1_20" function="internal">
        <lane id=":J1_20_0" index="0" disallow="pedestrian" speed="6.55" length="4.27" shape="33.47,-1.91 34.38,-3.40 34.78,-5.89"/>
    </edge>
    <edge id=":J1_21" function="internal">
        <lane id=":J1_21_0" index="0" disallow="pedestrian" speed="9.27" length="14.39" shape="33.96,3.71 34.28,3.76 38.00,6.05 40.22,9.83 40.93,15.09"/>
    </edge>
    <edge id=":J1_12" function="internal">
        <lane id=":J1_12_0" index="0" disallow="pedestrian" speed="6.52" length="4.77" shape="34.53,15.04 34.20,12.57 33.16,10.80 32.97,10.68"/>
    </edge>
    <edge id=":J1_13" function="internal">
        <lane id=":J1_13_0" index="0" disallow="pedestrian" speed="13.89" length="20.91" shape="34.53,15.04 34.78,-5.89"/>
        <lane id=":J1_13_1" index="1" disallow="pedestrian" speed="13.89" length="20.91" shape="37.73,15.07 37.98,-5.83"/>
    </edge>
    <edge id=":J1_15" function="internal">
        <lane id=":J1_15_0" index="0" disallow="pedestrian" speed="9.27" length="5.14" shape="37.73,15.07 38.49,9.98"/>
    </edge>
    <edge id=":J1_22" function="internal">
        <lane id=":J1_22_0" index="0" disallow="pedestrian" speed="6.52" length="4.29" shape="32.97,10.68 31.42,9.73 28.98,9.35"/>
    </edge>
    <edge id=":J1_23" function="internal">
        <lane id=":J1_23_0" index="0" disallow="pedestrian" speed="9.27" length="14.28" shape="38.49,9.98 38.52,9.81 40.81,6.08 44.59,3.86 49.88,3.15"/>
    </edge>
    <edge id=":J1_c0" function="crossing" crossingEdges="E0 -E01">
        <lane id=":J1_c0_0" index="0" allow="pedestrian" speed="2.78" length="12.80" width="4.00" shape="47.92,-1.66 47.81,11.13" outlineShape="49.92,-1.65 49.81,11.15 48.57,11.25 47.55,11.58 46.76,12.13 46.19,12.90 46.08,13.22 45.81,11.12 45.92,-1.68 46.28,-3.79 46.38,-3.46 46.93,-2.68 47.70,-2.11 48.70,-1.77"/>
    </edge>
    <edge id=":J1_c1" function="crossing" crossingEdges="E4 -E4">
        <lane id=":J1_c1_0" index="0" allow="pedestrian" speed="2.78" length="12.80" width="4.00" shape="33.14,-3.91 45.94,-3.70" outlineShape="33.18,-5.91 45.97,-5.70 46.07,-4.47 46.38,-3.46 46.93,-2.68 47.70,-2.11 48.02,-2.00 45.91,-1.70 33.11,-1.91 31.03,-2.18 31.33,-2.28 32.12,-2.84 32.69,-3.64 33.04,-4.66"/>
    </edge>
    <edge id=":J1_c2" function="crossing" crossingEdges="-E0 E0.54">
        <lane id=":J1_c2_0" index="0" allow="pedestrian" speed="2.78" length="12.80" width="4.00" shape="30.96,10.97 31.10,-1.83" outlineShape="28.96,10.95 29.10,-1.85 30.33,-1.95 31.33,-2.28 32.12,-2.84 32.69,-3.64 33.04,-4.66 33.14,-5.60 32.92,14.99 32.83,13.80 32.50,12.78 31.95,11.99 31.18,11.42 30.18,11.07"/>
    </edge>
    <edge id=":J1_c3" function="crossing" crossingEdges="E2 -E2">
        <lane id=":J1_c3_0" index="0" allow="pedestrian" speed="2.78" length="12.80" width="4.00" shape="45.74,13.12 32.94,13.03" outlineShape="45.73,15.12 32.93,15.03 32.83,15.03 32.93,15.03 32.83,13.80 32.50,12.78 31.95,11.99 31.18,11.42 30.86,11.31 32.96,11.03 45.76,11.12 47.87,11.48 47.55,11.58 46.76,12.13 46.19,12.90 45.85,13.90"/>
    </edge>
    <edge id=":J1_w0" function="walkingarea">
        <lane id=":J1_w0_0" index="0" allow="pedestrian" speed="2.78" length="3.32" width="4.00" shape="45.73,15.12 47.73,15.13 49.79,13.15 49.81,11.15 48.57,11.25 47.55,11.58 46.76,12.13 46.19,12.90 45.85,13.90"/>
    </edge>
    <edge id=":J1_w1" function="walkingarea">
        <lane id=":J1_w1_0" index="0" allow="pedestrian" speed="2.78" length="3.30" width="4.00" shape="49.92,-1.65 49.94,-3.65 47.97,-5.66 45.97,-5.70 46.07,-4.47 46.38,-3.46 46.93,-2.68 47.70,-2.11 48.70,-1.77"/>
    </edge>
    <edge id=":J1_w2" function="walkingarea">
        <lane id=":J1_w2_0" index="0" allow="pedestrian" speed="2.78" length="3.36" width="4.00" shape="33.18,-5.91 31.18,-5.95 29.12,-3.85 29.10,-1.85 30.33,-1.95 31.33,-2.28 32.12,-2.84 32.69,-3.64 33.04,-4.66"/>
    </edge>
    <edge id=":J1_w3" function="walkingarea">
        <lane id=":J1_w3_0" index="0" allow="pedestrian" speed="2.78" length="3.32" width="4.00" shape="28.96,10.95 28.94,12.95 30.93,15.02 32.93,15.03 32.83,13.80 32.50,12.78 31.95,11.99 31.18,11.42 30.18,11.07"/>
    </edge>
    <edge id=":J2_w0" function="walkingarea">
        <lane id=":J2_w0_0" index="0" allow="pedestrian" speed="2.78" length="14.80" width="2.00" shape="-24.72,43.61 -26.72,43.61 -9.92,43.65 -11.92,43.65"/>
    </edge>
    <edge id=":J3_w0" function="walkingarea">
        <lane id=":J3_w0_0" index="0" allow="pedestrian" speed="2.78" length="14.80" width="2.00" shape="-11.70,-34.64 -9.70,-34.63 -26.50,-34.69 -24.50,-34.68"/>
    </edge>
    <edge id=":J4_w0" function="walkingarea">
        <lane id=":J4_w0_0" index="0" allow="pedestrian" speed="2.78" length="14.80" width="2.00" shape="86.76,11.48 86.75,13.48 86.89,-3.32 86.88,-1.32"/>
    </edge>
    <edge id=":J5_w0" function="walkingarea">
        <lane id=":J5_w0_0" index="0" allow="pedestrian" speed="2.78" length="14.80" width="2.00" shape="32.73,44.03 30.73,44.01 47.53,44.13 45.53,44.11"/>
    </edge>
    <edge id=":J6_w0" function="walkingarea">
        <lane id=":J6_w0_0" index="0" allow="pedestrian" speed="2.78" length="14.80" width="2.00" shape="46.45,-34.08 48.45,-34.05 31.65,-34.33 33.65,-34.30"/>
    </edge>
    <edge id=":J7_0" function="internal">
        <lane id=":J7_0_0" index="0" disallow="pedestrian" speed="6.50" length="4.78" shape="-7.80,8.95 -10.27,9.28 -12.03,10.31 -12.16,10.52"/>
    </edge>
    <edge id=":J7_1" function="internal">
        <lane id=":J7_1_0" index="0" disallow="pedestrian" speed="13.89" length="20.88" shape="-7.80,8.95 -28.66,8.89"/>
        <lane id=":J7_1_1" index="1" disallow="pedestrian" speed="13.89" length="20.88" shape="-7.77,5.75 -28.67,5.69"/>
    </edge>
    <edge id=":J7_3" function="internal">
        <lane id=":J7_3_0" index="0" disallow="pedestrian" speed="9.29" length="4.82" shape="-7.77,5.75 -12.53,5.03"/>
    </edge>
    <edge id=":J7_16" function="internal">
        <lane id=":J7_16_0" index="0" disallow="pedestrian" speed="6.50" length="4.28" shape="-12.16,10.52 -13.09,12.06 -13.45,14.52"/>
    </edge>
    <edge id=":J7_17" function="internal">
        <lane id=":J7_17_0" index="0" disallow="pedestrian" speed="9.29" length="14.56" shape="-12.53,5.03 -13.04,4.95 -16.80,2.67 -19.05,-1.08 -19.79,-6.30"/>
    </edge>
    <edge id=":J7_4" function="internal">
        <lane id=":J7_4_0" index="0" disallow="pedestrian" speed="6.55" length="4.85" shape="-13.39,-6.28 -13.04,-3.84 -11.97,-2.09 -11.69,-1.91"/>
    </edge>
    <edge id=":J7_5" function="internal">
        <lane id=":J7_5_0" index="0" disallow="pedestrian" speed="13.89" length="20.80" shape="-13.39,-6.28 -13.45,14.52"/>
        <lane id=":J7_5_1" index="1" disallow="pedestrian" speed="13.89" length="20.80" shape="-16.59,-6.29 -16.65,14.51"/>
    </edge>
    <edge id=":J7_7" function="internal">
        <lane id=":J7_7_0" index="0" disallow="pedestrian" speed="9.29" length="4.96" shape="-16.59,-6.29 -17.31,-1.38"/>
    </edge>
    <edge id=":J7_18" function="internal">
        <lane id=":J7_18_0" index="0" disallow="pedestrian" speed="6.55" length="4.26" shape="-11.69,-1.91 -10.19,-1.02 -7.70,-0.65"/>
    </edge>
    <edge id=":J7_19" function="internal">
        <lane id=":J7_19_0" index="0" disallow="pedestrian" speed="9.29" length="14.41" shape="-17.31,-1.38 -17.36,-1.07 -19.63,2.67 -23.40,4.92 -28.67,5.69"/>
    </edge>
    <edge id=":J7_8" function="internal">
        <lane id=":J7_8_0" index="0" disallow="pedestrian" speed="6.55" length="4.81" shape="-28.70,-0.71 -26.21,-1.07 -24.43,-2.12 -24.31,-2.31"/>
    </edge>
    <edge id=":J7_9" function="internal">
        <lane id=":J7_9_0" index="0" disallow="pedestrian" speed="13.89" length="20.98" shape="-28.70,-0.71 -7.70,-0.65"/>
        <lane id=":J7_9_1" index="1" disallow="pedestrian" speed="13.89" length="20.98" shape="-28.69,2.49 -7.73,2.55"/>
    </edge>
    <edge id=":J7_11" function="internal">
        <lane id=":J7_11_0" index="0" disallow="pedestrian" speed="9.25" length="5.18" shape="-28.69,2.49 -23.55,3.20"/>
    </edge>
    <edge id=":J7_20" function="internal">
        <lane id=":J7_20_0" index="0" disallow="pedestrian" speed="6.55" length="4.29" shape="-24.31,-2.31 -23.35,-3.87 -22.99,-6.31"/>
    </edge>
    <edge id=":J7_21" function="internal">
        <lane id=":J7_21_0" index="0" disallow="pedestrian" speed="9.25" length="14.26" shape="-23.55,3.20 -23.41,3.22 -19.64,5.47 -17.39,9.23 -16.65,14.51"/>
    </edge>
    <edge id=":J7_12" function="internal">
        <lane id=":J7_12_0" index="0" disallow="pedestrian" speed="6.50" length="4.78" shape="-23.05,14.50 -23.39,12.03 -24.44,10.28 -24.65,10.15"/>
    </edge>
    <edge id=":J7_13" function="internal">
        <lane id=":J7_13_0" index="0" disallow="pedestrian" speed="13.89" length="20.81" shape="-23.05,14.50 -22.99,-6.31"/>
        <lane id=":J7_13_1" index="1" disallow="pedestrian" speed="13.89" length="20.81" shape="-19.85,14.51 -19.79,-6.30"/>
    </edge>
    <edge id=":J7_15" function="internal">
        <lane id=":J7_15_0" index="0" disallow="pedestrian" speed="9.25" length="5.02" shape="-19.85,14.51 -19.12,9.54"/>
    </edge>
    <edge id=":J7_22" function="internal">
        <lane id=":J7_22_0" index="0" disallow="pedestrian" speed="6.50" length="4.28" shape="-24.65,10.15 -26.20,9.23 -28.66,8.89"/>
    </edge>
    <edge id=":J7_23" function="internal">
        <lane id=":J7_23_0" index="0" disallow="pedestrian" speed="9.25" length="14.42" shape="-19.12,9.54 -19.08,9.23 -16.80,5.48 -13.02,3.25 -7.73,2.55"/>
    </edge>
    <edge id=":J7_c0" function="crossing" crossingEdges="E0.54 -E0">
        <lane id=":J7_c0_0" index="0" allow="pedestrian" speed="2.78" length="12.80" width="4.00" shape="-9.68,-2.27 -9.82,10.53" outlineShape="-7.68,-2.25 -7.82,10.55 -9.05,10.65 -10.05,10.97 -10.83,11.52 -11.39,12.30 -11.50,12.62 -11.82,10.51 -11.68,-2.29 -11.44,-4.36 -11.34,-4.06 -10.77,-3.28 -9.97,-2.71 -8.94,-2.37"/>
    </edge>
    <edge id=":J7_c1" function="crossing" crossingEdges="E1.39 -E1">
        <lane id=":J7_c1_0" index="0" allow="pedestrian" speed="2.78" length="12.80" width="4.00" shape="-24.59,-4.32 -11.79,-4.28" outlineShape="-24.69,-6.32 -11.69,-6.28 -11.68,-5.06 -11.34,-4.06 -10.77,-3.28 -9.97,-2.71 -8.94,-2.37 -7.85,-2.26 -28.60,-2.33 -27.45,-2.43 -26.43,-2.77 -25.62,-3.32 -25.05,-4.10 -24.71,-5.10"/>
    </edge>
    <edge id=":J7_c2" function="crossing" crossingEdges="-E00 E3">
        <lane id=":J7_c2_0" index="0" allow="pedestrian" speed="2.78" length="12.80" width="4.00" shape="-26.65,10.48 -26.71,-2.32" outlineShape="-28.65,10.59 -28.71,-2.41 -28.71,-2.51 -28.71,-2.31 -27.45,-2.43 -26.43,-2.77 -25.62,-3.32 -25.05,-4.10 -24.94,-4.41 -24.71,-2.33 -24.65,10.47 -24.98,12.58 -25.09,12.26 -25.64,11.48 -26.42,10.92 -27.42,10.59"/>
    </edge>
    <edge id=":J7_c3" function="crossing" crossingEdges="-E10 E1">
        <lane id=":J7_c3_0" index="0" allow="pedestrian" speed="2.78" length="12.80" width="4.00" shape="-11.84,12.53 -24.64,12.49" outlineShape="-11.85,14.53 -24.65,14.49 -24.75,14.49 -24.65,14.49 -24.75,13.26 -25.09,12.26 -25.64,11.48 -26.42,10.92 -26.75,10.82 -24.64,10.49 -11.84,10.53 -9.73,10.87 -10.05,10.97 -10.83,11.52 -11.39,12.30 -11.73,13.30"/>
    </edge>
    <edge id=":J7_w0" function="walkingarea">
        <lane id=":J7_w0_0" index="0" allow="pedestrian" speed="2.78" length="3.30" width="4.00" shape="-11.85,14.53 -9.85,14.53 -7.84,12.55 -7.82,10.55 -9.05,10.65 -10.05,10.97 -10.83,11.52 -11.39,12.30 -11.73,13.30"/>
    </edge>
    <edge id=":J7_w1" function="walkingarea">
        <lane id=":J7_w1_0" index="0" allow="pedestrian" speed="2.78" length="3.36" width="4.00" shape="-7.68,-2.25 -7.66,-4.25 -9.79,-6.27 -11.79,-6.28 -11.68,-5.06 -11.34,-4.06 -10.77,-3.28 -9.97,-2.71 -8.94,-2.37"/>
    </edge>
    <edge id=":J7_w2" function="walkingarea">
        <lane id=":J7_w2_0" index="0" allow="pedestrian" speed="2.78" length="3.35" width="4.00" shape="-24.59,-6.32 -26.59,-6.32 -28.72,-4.31 -28.71,-2.31 -27.45,-2.43 -26.43,-2.77 -25.62,-3.32 -25.05,-4.10 -24.71,-5.10"/>
    </edge>
    <edge id=":J7_w3" function="walkingarea">
        <lane id=":J7_w3_0" index="0" allow="pedestrian" speed="2.78" length="3.30" width="4.00" shape="-28.65,10.49 -28.64,12.49 -26.65,14.49 -24.65,14.49 -24.75,13.26 -25.09,12.26 -25.64,11.48 -26.42,10.92 -27.42,10.59"/>
    </edge>

    <edge id="-E0" from="J1" to="J7" priority="-1" shape="39.40,4.66 -18.22,4.04">
        <lane id="-E0_0" index="0" allow="pedestrian" speed="13.89" length="36.79" width="2.00" shape="28.95,11.95 -7.83,11.55"/>
        <lane id="-E0_1" index="1" disallow="pedestrian" speed="13.89" length="36.79" shape="28.98,9.35 -7.80,8.95"/>
        <lane id="-E0_2" index="2" disallow="pedestrian" speed="13.89" length="36.79" shape="29.02,6.15 -7.77,5.75"/>
    </edge>
    <edge id="-E00" from="J7" to="J0" priority="-1" shape="-18.22,4.04 -72.61,4.29">
        <lane id="-E00_0" index="0" allow="pedestrian" speed="13.89" length="43.93" width="2.00" shape="-28.65,11.49 -72.58,11.69"/>
        <lane id="-E00_1" index="1" disallow="pedestrian" speed="13.89" length="43.93" shape="-28.66,8.89 -72.59,9.09"/>
        <lane id="-E00_2" index="2" disallow="pedestrian" speed="13.89" length="43.93" shape="-28.67,5.69 -72.60,5.89"/>
    </edge>
    <edge id="-E01" from="J4" to="J1" priority="-1">
        <lane id="-E01_0" index="0" allow="pedestrian" speed="13.89" length="36.96" width="2.00" shape="86.75,12.48 49.80,12.15"/>
        <lane id="-E01_1" index="1" disallow="pedestrian" speed="13.89" length="36.96" shape="86.78,9.88 49.82,9.55"/>
        <lane id="-E01_2" index="2" disallow="pedestrian" speed="13.89" length="36.96" shape="86.81,6.68 49.85,6.35"/>
    </edge>
    <edge id="-E1" from="J3" to="J7" priority="-1" shape="-18.10,-34.66 -18.22,4.04">
        <lane id="-E1_0" index="0" allow="pedestrian" speed="13.89" length="28.36" width="2.00" shape="-10.70,-34.64 -10.79,-6.27"/>
        <lane id="-E1_1" index="1" disallow="pedestrian" speed="13.89" length="28.36" shape="-13.30,-34.65 -13.39,-6.28"/>
        <lane id="-E1_2" index="2" disallow="pedestrian" speed="13.89" length="28.36" shape="-16.50,-34.66 -16.59,-6.29"/>
    </edge>
    <edge id="-E10" from="J7" to="J2" priority="-1" shape="-18.22,4.04 -18.32,43.63">
        <lane id="-E10_0" index="0" allow="pedestrian" speed="13.89" length="29.12" width="2.00" shape="-10.85,14.53 -10.92,43.65"/>
        <lane id="-E10_1" index="1" disallow="pedestrian" speed="13.89" length="29.12" shape="-13.45,14.52 -13.52,43.64"/>
        <lane id="-E10_2" index="2" disallow="pedestrian" speed="13.89" length="29.12" shape="-16.65,14.51 -16.72,43.63"/>
    </edge>
    <edge id="-E2" from="J5" to="J1" priority="-1">
        <lane id="-E2_0" index="0" allow="pedestrian" speed="13.89" length="28.99" width="2.00" shape="31.73,44.02 31.93,15.03"/>
        <lane id="-E2_1" index="1" disallow="pedestrian" speed="13.89" length="28.99" shape="34.33,44.04 34.53,15.04"/>
        <lane id="-E2_2" index="2" disallow="pedestrian" speed="13.89" length="28.99" shape="37.53,44.06 37.73,15.07"/>
    </edge>
    <edge id="-E4" from="J6" to="J1" priority="-1">
        <lane id="-E4_0" index="0" allow="pedestrian" speed="13.89" length="28.39" width="2.00" shape="47.45,-34.07 46.97,-5.68"/>
        <lane id="-E4_1" index="1" disallow="pedestrian" speed="13.89" length="28.39" shape="44.85,-34.11 44.37,-5.72"/>
        <lane id="-E4_2" index="2" disallow="pedestrian" speed="13.89" length="28.39" shape="41.65,-34.16 41.17,-5.78"/>
    </edge>
    <edge id="E0" from="J1" to="J4" priority="-1">
        <lane id="E0_0" index="0" allow="pedestrian" speed="13.89" length="36.96" width="2.00" shape="49.93,-2.65 86.89,-2.32"/>
        <lane id="E0_1" index="1" disallow="pedestrian" speed="13.89" length="36.96" shape="49.91,-0.05 86.86,0.28"/>
        <lane id="E0_2" index="2" disallow="pedestrian" speed="13.89" length="36.96" shape="49.88,3.15 86.83,3.48"/>
    </edge>
    <edge id="E0.54" from="J7" to="J1" priority="-1" shape="-18.22,4.04 39.40,4.66">
        <lane id="E0.54_0" index="0" allow="pedestrian" speed="13.89" length="36.79" width="2.00" shape="-7.67,-3.25 29.11,-2.85"/>
        <lane id="E0.54_1" index="1" disallow="pedestrian" speed="13.89" length="36.79" shape="-7.70,-0.65 29.09,-0.25"/>
        <lane id="E0.54_2" index="2" disallow="pedestrian" speed="13.89" length="36.79" shape="-7.73,2.55 29.05,2.95"/>
    </edge>
    <edge id="E1" from="J2" to="J7" priority="-1" shape="-18.32,43.63 -18.22,4.04">
        <lane id="E1_0" index="0" allow="pedestrian" speed="13.89" length="29.12" width="2.00" shape="-25.72,43.61 -25.65,14.49"/>
        <lane id="E1_1" index="1" disallow="pedestrian" speed="13.89" length="29.12" shape="-23.12,43.62 -23.05,14.50"/>
        <lane id="E1_2" index="2" disallow="pedestrian" speed="13.89" length="29.12" shape="-19.92,43.63 -19.85,14.51"/>
    </edge>
    <edge id="E1.39" from="J7" to="J3" priority="-1" shape="-18.22,4.04 -18.10,-34.66">
        <lane id="E1.39_0" index="0" allow="pedestrian" speed="13.89" length="28.36" width="2.00" shape="-25.59,-6.32 -25.50,-34.68"/>
        <lane id="E1.39_1" index="1" disallow="pedestrian" speed="13.89" length="28.36" shape="-22.99,-6.31 -22.90,-34.67"/>
        <lane id="E1.39_2" index="2" disallow="pedestrian" speed="13.89" length="28.36" shape="-19.79,-6.30 -19.70,-34.66"/>
    </edge>
    <edge id="E2" from="J1" to="J5" priority="-1">
        <lane id="E2_0" index="0" allow="pedestrian" speed="13.89" length="28.99" width="2.00" shape="46.73,15.13 46.53,44.12"/>
        <lane id="E2_1" index="1" disallow="pedestrian" speed="13.89" length="28.99" shape="44.13,15.11 43.93,44.10"/>
        <lane id="E2_2" index="2" disallow="pedestrian" speed="13.89" length="28.99" shape="40.93,15.09 40.73,44.08"/>
    </edge>
    <edge id="E3" from="J0" to="J7" priority="-1" shape="-72.61,4.29 -18.22,4.04">
        <lane id="E3_0" index="0" allow="pedestrian" speed="13.89" length="43.93" width="2.00" shape="-72.64,-3.11 -28.71,-3.31"/>
        <lane id="E3_1" index="1" disallow="pedestrian" speed="13.89" length="43.93" shape="-72.63,-0.51 -28.70,-0.71"/>
        <lane id="E3_2" index="2" disallow="pedestrian" speed="13.89" length="43.93" shape="-72.62,2.69 -28.69,2.49"/>
    </edge>
    <edge id="E4" from="J1" to="J6" priority="-1">
        <lane id="E4_0" index="0" allow="pedestrian" speed="13.89" length="28.39" width="2.00" shape="32.18,-5.93 32.65,-34.31"/>
        <lane id="E4_1" index="1" disallow="pedestrian" speed="13.89" length="28.39" shape="34.78,-5.89 35.25,-34.27"/>
        <lane id="E4_2" index="2" disallow="pedestrian" speed="13.89" length="28.39" shape="37.98,-5.83 38.45,-34.22"/>
    </edge>

    <tlLogic id="J1" type="static" programID="0" offset="0">
        <phase duration="37" state="gGGgrrrrgGGgrrrrrGrG"/>
        <phase duration="5"  state="gGGgrrrrgGGgrrrrrrrr"/>
        <phase duration="3"  state="yyyyrrrryyyyrrrrrrrr"/>
        <phase duration="37" state="rrrrgGGgrrrrgGGgGrGr"/>
        <phase duration="5"  state="rrrrgGGgrrrrgGGgrrrr"/>
        <phase duration="3"  state="rrrryyyyrrrryyyyrrrr"/>
    </tlLogic>
    <tlLogic id="J7" type="static" programID="0" offset="0">
        <phase duration="37" state="gGGgrrrrgGGgrrrrrGrG"/>
        <phase duration="5"  state="gGGgrrrrgGGgrrrrrrrr"/>
        <phase duration="3"  state="yyyyrrrryyyyrrrrrrrr"/>
        <phase duration="37" state="rrrrgGGgrrrrgGGgGrGr"/>
        <phase duration="5"  state="rrrrgGGgrrrrgGGgrrrr"/>
        <phase duration="3"  state="rrrryyyyrrrryyyyrrrr"/>
    </tlLogic>

    <junction id="J0" type="dead_end" x="-72.61" y="4.29" incLanes="-E00_0 -E00_1 -E00_2" intLanes="" shape="-72.61,4.29 -72.57,12.69 -72.61,4.29"/>
    <junction id="J1" type="traffic_light" x="39.40" y="4.66" incLanes="-E01_0 -E01_1 -E01_2 -E4_0 -E4_1 -E4_2 E0.54_0 E0.54_1 E0.54_2 -E2_0 -E2_1 -E2_2 :J1_w1_0 :J1_w2_0 :J1_w3_0 :J1_w0_0" intLanes=":J1_16_0 :J1_1_0 :J1_1_1 :J1_17_0 :J1_18_0 :J1_5_0 :J1_5_1 :J1_19_0 :J1_20_0 :J1_9_0 :J1_9_1 :J1_21_0 :J1_22_0 :J1_13_0 :J1_13_1 :J1_23_0 :J1_c0_0 :J1_c1_0 :J1_c2_0 :J1_c3_0" shape="49.79,13.15 49.94,-3.65 48.83,-3.88 48.45,-4.16 48.18,-4.55 48.02,-5.05 47.97,-5.66 31.18,-5.95 30.93,-4.77 30.65,-4.36 30.25,-4.07 29.74,-3.90 29.12,-3.85 28.94,12.95 30.05,13.19 30.44,13.48 30.71,13.88 30.88,14.39 30.93,15.02 47.73,15.13 47.96,14.03 48.25,13.64 48.65,13.36 49.16,13.20">
        <request index="0"  response="10010000000000000000" foes="10010000000001100000" cont="1"/>
        <request index="1"  response="01011001000000000000" foes="01011111100011100000" cont="0"/>
        <request index="2"  response="01011000000010000000" foes="01011111100011100000" cont="0"/>
        <request index="3"  response="00111000011010000000" foes="00111110011011100000" cont="1"/>
        <request index="4"  response="00110000011000000000" foes="00110000011000000000" cont="1"/>
        <request index="5"  response="10100000111000001111" foes="10101000111000001111" cont="0"/>
        <request index="6"  response="10100000111000001111" foes="10101000111000001111" cont="0"/>
        <request index="7"  response="01100110111000001110" foes="01100110111000001110" cont="1"/>
        <request index="8"  response="01100000000000000000" foes="01100110000000000000" cont="1"/>
        <request index="9"  response="01010000000010010000" foes="01011110000011111000" cont="0"/>
        <request index="10" response="01011000000010000000" foes="01011110000011111000" cont="0"/>
        <request index="11" response="11001000000010000110" foes="11001110000011100110" cont="1"/>
        <request index="12" response="11000000000000000110" foes="11000000000000000110" cont="1"/>
        <request index="13" response="10100000111100001110" foes="10100000111110001110" cont="0"/>
        <request index="14" response="10100000111100001110" foes="10100000111110001110" cont="0"/>
        <request index="15" response="10010000111001101110" foes="10010000111001101110" cont="1"/>
        <request index="16" response="00000000000000000000" foes="00001000011000011111" cont="0"/>
        <request index="17" response="00000000000000000000" foes="00000110000111111000" cont="0"/>
        <request index="18" response="00000000000000000000" foes="00000001111110000110" cont="0"/>
        <request index="19" response="00000000000000000000" foes="00001111100001100001" cont="0"/>
    </junction>
    <junction id="J2" type="dead_end" x="-18.32" y="43.63" incLanes="-E10_0 -E10_1 -E10_2" intLanes="" shape="-18.32,43.63 -9.92,43.65 -18.32,43.63"/>
    <junction id="J3" type="dead_end" x="-18.10" y="-34.66" incLanes="E1.39_0 E1.39_1 E1.39_2" intLanes="" shape="-18.10,-34.66 -26.50,-34.69 -18.10,-34.66"/>
    <junction id="J4" type="dead_end" x="86.82" y="5.08" incLanes="E0_0 E0_1 E0_2" intLanes="" shape="86.82,5.08 86.89,-3.32 86.82,5.08"/>
    <junction id="J5" type="dead_end" x="39.13" y="44.07" incLanes="E2_0 E2_1 E2_2" intLanes="" shape="39.13,44.07 47.53,44.13 39.13,44.07"/>
    <junction id="J6" type="dead_end" x="40.05" y="-34.19" incLanes="E4_0 E4_1 E4_2" intLanes="" shape="40.05,-34.19 31.65,-34.33 40.05,-34.19"/>
    <junction id="J7" type="traffic_light" x="-18.42" y="4.04" incLanes="-E0_0 -E0_1 -E0_2 -E1_0 -E1_1 -E1_2 E3_0 E3_1 E3_2 E1_0 E1_1 E1_2 :J7_w1_0 :J7_w2_0 :J7_w3_0 :J7_w0_0" intLanes=":J7_16_0 :J7_1_0 :J7_1_1 :J7_17_0 :J7_18_0 :J7_5_0 :J7_5_1 :J7_19_0 :J7_20_0 :J7_9_0 :J7_9_1 :J7_21_0 :J7_22_0 :J7_13_0 :J7_13_1 :J7_23_0 :J7_c0_0 :J7_c1_0 :J7_c2_0 :J7_c3_0" shape="-7.84,12.55 -7.66,-4.25 -8.85,-4.48 -9.26,-4.76 -9.55,-5.16 -9.73,-5.66 -9.79,-6.27 -26.59,-6.32 -26.83,-5.21 -27.12,-4.82 -27.54,-4.54 -28.07,-4.37 -28.72,-4.31 -28.64,12.49 -27.53,12.71 -27.14,12.98 -26.87,13.37 -26.70,13.87 -26.65,14.49 -9.85,14.53 -9.62,13.42 -9.34,13.04 -8.95,12.76 -8.45,12.60">
        <request index="0"  response="10010000000001100000" foes="10010000000001100000" cont="1"/>
        <request index="1"  response="01011111000011100000" foes="01011111100011100000" cont="0"/>
        <request index="2"  response="01011111000011100000" foes="01011111100011100000" cont="0"/>
        <request index="3"  response="00111110011011100000" foes="00111110011011100000" cont="1"/>
        <request index="4"  response="00110000000000000000" foes="00110000011000000000" cont="1"/>
        <request index="5"  response="10100000000000001001" foes="10101000111000001111" cont="0"/>
        <request index="6"  response="10100000100000001000" foes="10101000111000001111" cont="0"/>
        <request index="7"  response="01100110100000001000" foes="01100110111000001110" cont="1"/>
        <request index="8"  response="01100110000000000000" foes="01100110000000000000" cont="1"/>
        <request index="9"  response="01011110000011110000" foes="01011110000011111000" cont="0"/>
        <request index="10" response="01011110000011110000" foes="01011110000011111000" cont="0"/>
        <request index="11" response="11001110000011100110" foes="11001110000011100110" cont="1"/>
        <request index="12" response="11000000000000000000" foes="11000000000000000110" cont="1"/>
        <request index="13" response="10100000100100000000" foes="10100000111110001110" cont="0"/>
        <request index="14" response="10100000100000001000" foes="10100000111110001110" cont="0"/>
        <request index="15" response="10010000100001101000" foes="10010000111001101110" cont="1"/>