<?xml version="1.0" encoding="UTF-8"?>

<!-- generated on 2026-02-07T13:06:24.889395+05:30 by Eclipse SUMO netedit 1.26.0
<neteditConfiguration xmlns:xsi="http://www.w3.org/2001/XMLSchema-instance" xsi:noNamespaceSchemaLocation="http://sumo.dlr.de/xsd/neteditConfiguration.xsd">

    <input>
        <sumo-net-file value="C:\Users\29ami\OneDrive\Desktop\mini-project\traffic_ai\network.net.xml"/>
    </input>

    <output>
        <output-file value="C:\Users\29ami\OneDrive\Desktop\mini-project\traffic_ai\network.net.xml"/>
    </output>

    <processing>
        <geometry.min-radius.fix.railways value="false"/>
        <geometry.avoid-overlap value="false"/>
        <geometry.max-grade.fix value="false"/>
        <offset.disable-normalization value="true"/>
        <lefthand value="0"/>
    </processing>

    <junctions>
        <no-turnarounds value="true"/>
        <junctions.corner-detail value="5"/>
        <junctions.limit-turn-speed value="5.50"/>
        <rectangular-lane-cut value="0"/>
    </junctions>

    <pedestrian>
        <walkingareas value="0"/>
    </pedestrian>

</neteditConfiguration>
-->

<net version="1.20" junctionCornerDetail="5" limitTurnSpeed="5.50" avoidOverlap="0" xmlns:xsi="http://www.w3.org/2001/XMLSchema-instance" xsi:noNamespaceSchemaLocation="http://sumo.dlr.de/xsd/net_file.xsd">

    <location netOffset="0.00,0.00" convBoundary="-72.61,-34.66,39.40,43.63" origBoundary="-10000000000.00,-10000000000.00,10000000000.00,10000000000.00" projParameter="!"/>

    <edge id=":J7_0" function="internal">
        <lane id=":J7_0_0" index="0" speed="6.51" length="9.06" shape="-20.00,11.29 -20.36,8.82 -21.41,7.06 -23.17,6.01 -25.62,5.67"/>
    </edge>
    <edge id=":J7_1" function="internal">
        <lane id=":J7_1_0" index="0" speed="13.89" length="14.45" shape="-20.00,11.29 -19.96,-3.17"/>
    </edge>
    <edge id=":J7_2" function="internal">
        <lane id=":J7_2_0" index="0" speed="7.98" length="4.12" shape="-20.00,11.29 -19.46,7.41 -19.35,7.24"/>
    </edge>
    <edge id=":J7_12" function="internal">
        <lane id=":J7_12_0" index="0" speed="7.98" length="10.13" shape="-19.35,7.24 -17.80,4.66 -15.04,3.03 -11.16,2.52"/>
    </edge>
    <edge id=":J7_3" function="internal">
        <lane id=":J7_3_0" index="0" speed="6.48" length="9.03" shape="-11.19,5.72 -13.65,6.04 -15.41,7.08 -16.46,8.82 -16.80,11.28"/>
    </edge>
    <edge id=":J7_4" function="internal">
        <lane id=":J7_4_0" index="0" speed="13.89" length="14.42" shape="-11.19,5.72 -25.62,5.67"/>
    </edge>
    <edge id=":J7_5" function="internal">
        <lane id=":J7_5_0" index="0" speed="8.02" length="4.03" shape="-11.19,5.72 -15.06,5.13 -15.16,5.06"/>
    </edge>
    <edge id=":J7_13" function="internal">
        <lane id=":J7_13_0" index="0" speed="8.02" length="10.19" shape="-15.16,5.06 -17.81,3.45 -19.44,0.69 -19.96,-3.17"/>
    </edge>
    <edge id=":J7_6" function="internal">
        <lane id=":J7_6_0" index="0" speed="6.53" length="9.07" shape="-16.76,-3.14 -16.43,-0.69 -15.38,1.07 -13.63,2.14 -11.16,2.52"/>
    </edge>
    <edge id=":J7_7" function="internal">
        <lane id=":J7_7_0" index="0" speed="13.89" length="14.42" shape="-16.76,-3.14 -16.80,11.28"/>
    </edge>
    <edge id=":J7_8" function="internal">
        <lane id=":J7_8_0" index="0" speed="8.04" length="4.02" shape="-16.76,-3.14 -17.34,0.70 -17.41,0.82"/>
    </edge>
    <edge id=":J7_14" function="internal">
        <lane id=":J7_14_0" index="0" speed="8.04" length="10.18" shape="-17.41,0.82 -19.01,3.45 -21.77,5.11 -25.62,5.67"/>
    </edge>
    <edge id=":J7_9" function="internal">
        <lane id=":J7_9_0" index="0" speed="6.56" length="9.10" shape="-25.63,2.47 -23.17,2.11 -21.40,1.05 -20.33,-0.71 -19.96,-3.17"/>
    </edge>
    <edge id=":J7_10" function="internal">
        <lane id=":J7_10_0" index="0" speed="13.89" length="14.47" shape="-25.63,2.47 -11.16,2.52"/>
    </edge>
    <edge id=":J7_11" function="internal">
        <lane id=":J7_11_0" index="0" speed="8.01" length="4.12" shape="-25.63,2.47 -21.78,3.01 -21.58,3.13"/>
    </edge>
    <edge id=":J7_15" function="internal">
        <lane id=":J7_15_0" index="0" speed="8.01" length="10.11" shape="-21.58,3.13 -19.02,4.65 -17.36,7.41 -16.80,11.28"/>
    </edge>

    <edge id="-E0" from="J1" to="J7" priority="-1">
        <lane id="-E0_0" index="0" speed="13.89" length="50.58" shape="39.38,6.26 -11.19,5.72"/>
    </edge>
    <edge id="-E00" from="J7" to="J0" priority="-1">
        <lane id="-E00_0" index="0" speed="13.89" length="46.98" shape="-25.62,5.67 -72.60,5.89"/>
    </edge>
    <edge id="-E1" from="J3" to="J7" priority="-1">
        <lane id="-E1_0" index="0" speed="13.89" length="31.51" shape="-16.50,-34.65 -16.76,-3.14"/>
    </edge>
    <edge id="-E10" from="J7" to="J2" priority="-1">
        <lane id="-E10_0" index="0" speed="13.89" length="32.35" shape="-16.80,11.28 -16.72,43.63"/>
    </edge>
    <edge id="E0.54" from="J7" to="J1" priority="-1">
        <lane id="E0.54_0" index="0" speed="13.89" length="50.58" shape="-11.16,2.52 39.42,3.06"/>
    </edge>
    <edge id="E1" from="J2" to="J7" priority="-1">
        <lane id="E1_0" index="0" speed="13.89" length="32.35" shape="-19.92,43.63 -20.00,11.29"/>
    </edge>
    <edge id="E1.39" from="J7" to="J3" priority="-1">
        <lane id="E1.39_0" index="0" speed="13.89" length="31.51" shape="-19.96,-3.17 -19.70,-34.67"/>
    </edge>
    <edge id="E3" from="J0" to="J7" priority="-1">
        <lane id="E3_0" index="0" speed="13.89" length="46.98" shape="-72.62,2.69 -25.63,2.47"/>
    </edge>

    <tlLogic id="J7" type="static" programID="0" offset="0">
        <phase duration="42" state="rrrGGgrrrGGg"/>
        <phase duration="3"  state="rrryyyrrryyy"/>
        <phase duration="42" state="GGgrrrGGgrrr"/>
        <phase duration="3"  state="yyyrrryyyrrr"/>
    </tlLogic>

    <junction id="J0" type="dead_end" x="-72.61" y="4.29" incLanes="-E00_0" intLanes="" shape="-72.61,4.29 -72.60,7.49 -72.61,4.29"/>
    <junction id="J1" type="dead_end" x="39.40" y="4.66" incLanes="E0.54_0" intLanes="" shape="39.40,4.66 39.43,1.46 39.40,4.66"/>
    <junction id="J2" type="dead_end" x="-18.32" y="43.63" incLanes="-E10_0" intLanes="" shape="-18.32,43.63 -15.12,43.62 -18.32,43.63"/>
    <junction id="J3" type="dead_end" x="-18.10" y="-34.66" incLanes="E1.39_0" intLanes="" shape="-18.10,-34.66 -21.30,-34.69 -18.10,-34.66"/>
    <junction id="J7" type="traffic_light" x="-18.42" y="4.04" incLanes="E1_0 -E0_0 -E1_0 E3_0" intLanes=":J7_0_0 :J7_1_0 :J7_12_0 :J7_3_0 :J7_4_0 :J7_13_0 :J7_6_0 :J7_7_0 :J7_14_0 :J7_9_0 :J7_10_0 :J7_15_0" shape="-21.60,11.29 -15.20,11.27 -14.76,9.06 -14.21,8.29 -13.43,7.74 -12.43,7.42 -11.21,7.32 -11.14,0.92 -13.39,0.45 -14.17,-0.11 -14.73,-0.90 -15.06,-1.90 -15.16,-3.13 -21.56,-3.18 -22.03,-0.94 -22.60,-0.15 -23.39,0.41 -24.40,0.76 -25.64,0.87 -25.61,7.27 -23.39,7.71 -22.61,8.27 -22.05,9.05 -21.72,10.06">
        <request index="0"  response="000000000000" foes="000100010000" cont="0"/>
        <request index="1"  response="100000100000" foes="111100110000" cont="0"/>
        <request index="2"  response="100011100000" foes="110111110000" cont="1"/>
        <request index="3"  response="000010000000" foes="100010000000" cont="0"/>
        <request index="4"  response="000110000111" foes="100110000111" cont="0"/>
        <request index="5"  response="111110000110" foes="111110000110" cont="1"/>
        <request index="6"  response="000000000000" foes="010000000100" cont="0"/>
        <request index="7"  response="100000100000" foes="110000111100" cont="0"/>
        <request index="8"  response="100000100111" foes="110000110111" cont="1"/>
        <request index="9"  response="000000000010" foes="000000100010" cont="0"/>
        <request index="10" response="000111000110" foes="000111100110" cont="0"/>
        <request index="11" response="000110011110" foes="000110111110" cont="1"/>
    </junction>

    <junction id=":J7_12_0" type="internal" x="-19.35" y="7.24" incLanes=":J7_2_0 -E1_0" intLanes=":J7_4_0 :J7_5_0 :J7_6_0 :J7_7_0 :J7_10_0 :J7_11_0"/>
    <junction id=":J7_13_0" type="internal" x="-15.16" y="5.06" incLanes=":J7_5_0 E3_0" intLanes=":J7_1_0 :J7_2_0 :J7_7_0 :J7_8_0 :J7_9_0 :J7_10_0"/>
    <junction id=":J7_14_0" type="internal" x="-17.41" y="0.82" incLanes=":J7_8_0 E1_0" intLanes=":J7_0_0 :J7_1_0 :J7_4_0 :J7_5_0 :J7_10_0 :J7_11_0"/>
    <junction id=":J7_15_0" type="internal" x="-21.58" y="3.13" incLanes=":J7_11_0 -E0_0" intLanes=":J7_1_0 :J7_2_0 :J7_3_0 :J7_4_0 :J7_7_0 :J7_8_0"/>

    <connection from="-E0" to="-E10" fromLane="0" toLane="0" via=":J7_3_0" tl="J7" linkIndex="3" dir="r" state="o"/>
    <connection from="-E0" to="-E00" fromLane="0" toLane="0" via=":J7_4_0" tl="J7" linkIndex="4" dir="s" state="o"/>
    <connection from="-E0" to="E1.39" fromLane="0" toLane="0" via=":J7_5_0" tl="J7" linkIndex="5" dir="l" state="o"/>
    <connection from="-E1" to="E0.54" fromLane="0" toLane="0" via=":J7_6_0" tl="J7" linkIndex="6" dir="r" state="O"/>
    <connection from="-E1" to="-E10" fromLane="0" toLane="0" via=":J7_7_0" tl="J7" linkIndex="7" dir="s" state="O"/>
    <connection from="-E1" to="-E00" fromLane="0" toLane="0" via=":J7_8_0" tl="J7" linkIndex="8" dir="l" state="o"/>
    <connection from="E1" to="-E00" fromLane="0" toLane="0" via=":J7_0_0" tl="J7" linkIndex="0" dir="r" state="O"/>
    <connection from="E1" to="E1.39" fromLane="0" toLane="0" via=":J7_1_0" tl="J7" linkIndex="1" dir="s" state="O"/>
    <connection from="E1" to="E0.54" fromLane="0" toLane="0" via=":J7_2_0" tl="J7" linkIndex="2" dir="l" state="o"/>
    <connection from="E3" to="E1.39" fromLane="0" toLane="0" via=":J7_9_0" tl="J7" linkIndex="9" dir="r" state="o"/>
    <connection from="E3" to="E0.54" fromLane="0" toLane="0" via=":J7_10_0" tl="J7" linkIndex="10" dir="s" state="o"/>
    <connection from="E3" to="-E10" fromLane="0" toLane="0" via=":J7_11_0" tl="J7" linkIndex="11" dir="l" state="o"/>

    <connection from=":J7_0" to="-E00" fromLane="0" toLane="0" dir="r" state="M"/>
    <connection from=":J7_1" to="E1.39" fromLane="0" toLane="0" dir="s" state="M"/>
    <connection from=":J7_2" to="E0.54" fromLane="0" toLane="0" via=":J7_12_0" dir="l" state="m"/>
    <connection from=":J7_12" to="E0.54" fromLane="0" toLane="0" dir="l" state="M"/>
    <connection from=":J7_3" to="-E10" fromLane="0" toLane="0" dir="r" state="M"/>
    <connection from=":J7_4" to="-E00" fromLane="0" toLane="0" dir="s" state="M"/>
    <connection from=":J7_5" to="E1.39" fromLane="0" toLane="0" via=":J7_13_0" dir="l" state="m"/>
    <connection from=":J7_13" to="E1.39" fromLane="0" toLane="0" dir="l" state="M"/>
    <connection from=":J7_6" to="E0.54" fromLane="0" toLane="0" dir="r" state="M"/>
    <connection from=":J7_7" to="-E10" fromLane="0" toLane="0" dir="s" state="M"/>
    <connection from=":J7_8" to="-E00" fromLane="0" toLane="0" via=":J7_14_0" dir="l" state="m"/>
    <connection from=":J7_14" to="-E00" fromLane="0" toLane="0" dir="l" state="M"/>
    <connection from=":J7_9" to="E1.39" fromLane="0" toLane="0" dir="r" state="M"/>
    <connection from=":J7_10" to="E0.54" fromLane="0" toLane="0" dir="s" state="M"/>
    <connection from=":J7_11" to="-E10" fromLane="0" toLane="0" via=":J7_15_0" dir="l" state="m"/>
    <connection from=":J7_15" to="-E10" fromLane="0" toLane="0" dir="l" state="M"/>

</net>
