<routes>
    <vType id="ambulance" vClass="emergency" color="255,0,0" guiShape="emergency" maxSpeed="30.0" accel="3.0" decel="4.5" length="6.5"/>

    <vTypeDistribution id="mixed_traffic">
        <vType id="car" probability="0.7" guiShape="passenger" color="1,0,0"/>
        <vType id="bus" probability="0.2" guiShape="bus" color="0,0,1"/>
        <vType id="truck" probability="0.1" guiShape="truck" color="0,1,0"/>
    </vTypeDistribution>

    <route id="WE" edges="E3 E0.54"/>
    <route id="NS" edges="E1 E1.39"/>
    <route id="EW" edges="-E0 -E00"/>
    <route id="SN" edges="-E1 -E10"/>

    <route id="N_to_E" edges="E1 E0.54"/>
    <route id="S_to_W" edges="-E1 -E00"/>
    <route id="E_to_S" edges="E3 -E10"/>
    <route id="W_to_N" edges="-E0 E1.39"/>

    <route id="N_to_W" edges="E1 -E00"/>
    <route id="S_to_E" edges="-E1 E0.54"/>
    <route id="E_to_N" edges="E3 E1.39"/>
    <route id="W_to_S" edges="-E0 -E10"/>

    <flow id="f_NS" route="NS" type="mixed_traffic" begin="0" end="1000" probability="0.05"/>
    <flow id="f_SN" route="SN" type="mixed_traffic" begin="0" end="1000" probability="0.05"/>
    <flow id="f_WE" route="WE" type="mixed_traffic" begin="0" end="1000" probability="0.04"/>
    <flow id="f_EW" route="EW" type="mixed_traffic" begin="0" end="1000" probability="0.04"/>

    <flow id="f_N_to_E" route="N_to_E" type="mixed_traffic" begin="0" end="1000" probability="0.02"/>
    <flow id="f_N_to_W" route="N_to_W" type="mixed_traffic" begin="0" end="1000" probability="0.02"/>
    <flow id="f_S_to_E" route="S_to_E" type="mixed_traffic" begin="0" end="1000" probability="0.02"/>
    <flow id="f_S_to_W" route="S_to_W" type="mixed_traffic" begin="0" end="1000" probability="0.02"/>

    <flow id="f_emerg_NS" route="NS" type="ambulance" begin="0" end="1000" probability="0.001"/>
    <flow id="f_emerg_SN" route="SN" type="ambulance" begin="0" end="1000" probability="0.001"/>
    <flow id="f_emerg_WE" route="WE" type="ambulance" begin="0" end="1000" probability="0.001"/>
    <flow id="f_emerg_EW" route="EW" type="ambulance" begin="0" end="1000" probability="0.001"/>

    <flow id="f_emerg_N_to_E" route="N_to_E" type="ambulance" begin="0" end="1000" probability="0.001"/>
    <flow id="f_emerg_E_to_S" route="E_to_S" type="ambulance" begin="0" end="1000" probability="0.001"/>
    <flow id="f_emerg_S_to_W" route="S_to_W" type="ambulance" begin="0" end="1000" probability="0.001"/>
    <flow id="f_emerg_W_to_N" route="W_to_N" type="ambulance" begin="0" end="1000" probability="0.001"/>

    <vType id="pedestrian" vClass="pedestrian" color="255,192,203" guiShape="pedestrian" maxSpeed="1.5"/>

    <personFlow id="ped_walk_SN" begin="0" end="1000" probability="0.01">
        <walk from="-E1" to="-E10"/> 
    </personFlow>

    <personFlow id="ped_walk_EW" begin="0" end="1000" probability="0.01">
        <walk from="-E00" to="-E0"/> 
    </personFlow>

</routes>