<?xml version="1.0" encoding="UTF-8"?>

<!-- generated on 2026-03-30T12:24:52.686896+05:30 by Eclipse SUMO netedit 1.26.0
<neteditConfiguration xmlns:xsi="http://www.w3.org/2001/XMLSchema-instance" xsi:noNamespaceSchemaLocation="http://sumo.dlr.de/xsd/neteditConfiguration.xsd">

    <input>
        <sumo-net-file value="C:\Users\29ami\OneDrive\Desktop\mini-project\traffic_ai\train_env.net.xml"/>
    </input>

    <output>
        <output-file value="C:\Users\29ami\OneDrive\Desktop\mini-project\traffic_ai\train_env.net.xml"/>
    </output>

    <processing>
        <geometry.min-radius.fix.railways value="false"/>
        <geometry.avoid-overlap value="false"/>
        <geometry.max-grade.fix value="false"/>
        <offset.disable-normalization value="true"/>
        <lefthand value="0"/>
    </processing>

    <junctions>
        <no-internal-links value="false"/>
        <no-turnarounds value="true"/>
        <junctions.corner-detail value="5"/>
        <junctions.limit-turn-speed value="5.50"/>
        <rectangular-lane-cut value="0"/>
    </junctions>

    <pedestrian>
        <walkingareas value="0"/>
    </pedestrian>

</neteditConfiguration>
-->

<net version="1.20" junctionCornerDetail="5" limitTurnSpeed="5.50" avoidOverlap="0" xmlns:xsi="http://www.w3.org/2001/XMLSchema-instance" xsi:noNamespaceSchemaLocation="http://sumo.dlr.de/xsd/net_file.xsd">

    <location netOffset="0.00,0.00" convBoundary="-72.61,-43.50,42.65,52.66" origBoundary="-10000000000.00,-10000000000.00,10000000000.00,10000000000.00" projParameter="!"/>

    <edge id=":J0_w0" function="walkingarea">
        <lane id=":J0_w0_0" index="0" allow="pedestrian" speed="2.78" length="14.80" width="2.00" shape="-72.64,-2.11 -72.65,-4.11 -72.57,12.69 -72.58,10.69"/>
    </edge>
    <edge id=":J1_w0" function="walkingarea">
        <lane id=":J1_w0_0" index="0" allow="pedestrian" speed="2.78" length="14.80" width="2.00" shape="42.62,10.73 42.61,12.73 42.69,-4.07 42.68,-2.07"/>
    </edge>
    <edge id=":J2_w0" function="walkingarea">
        <lane id=":J2_w0_0" index="0" allow="pedestrian" speed="2.78" length="14.80" width="2.00" shape="-24.97,52.61 -26.97,52.60 -10.17,52.72 -12.17,52.71"/>
    </edge>
    <edge id=":J3_w0" function="walkingarea">
        <lane id=":J3_w0_0" index="0" allow="pedestrian" speed="2.78" length="14.80" width="2.00" shape="-11.69,-43.48 -9.69,-43.48 -26.49,-43.52 -24.49,-43.52"/>
    </edge>
    <edge id=":J7_0" function="internal">
        <lane id=":J7_0_0" index="0" disallow="pedestrian" speed="6.54" length="4.86" shape="-7.86,8.89 -10.31,9.23 -12.07,10.30 -12.24,10.58"/>
    </edge>
    <edge id=":J7_1" function="internal">
        <lane id=":J7_1_0" index="0" disallow="pedestrian" speed="13.89" length="20.85" shape="-7.86,8.89 -28.70,8.89"/>
        <lane id=":J7_1_1" index="1" disallow="pedestrian" speed="13.89" length="20.85" shape="-7.84,5.69 -28.71,5.69"/>
    </edge>
    <edge id=":J7_3" function="internal">
        <lane id=":J7_3_0" index="0" disallow="pedestrian" speed="9.26" length="4.86" shape="-7.84,5.69 -12.65,4.98"/>
    </edge>
    <edge id=":J7_16" function="internal">
        <lane id=":J7_16_0" index="0" disallow="pedestrian" speed="6.54" length="4.26" shape="-12.24,10.58 -13.13,12.08 -13.50,14.57"/>
    </edge>
    <edge id=":J7_17" function="internal">
        <lane id=":J7_17_0" index="0" disallow="pedestrian" speed="9.26" length="14.47" shape="-12.65,4.98 -13.08,4.92 -16.82,2.65 -19.06,-1.10 -19.79,-6.35"/>
    </edge>
    <edge id=":J7_4" function="internal">
        <lane id=":J7_4_0" index="0" disallow="pedestrian" speed="6.51" length="4.74" shape="-13.39,-6.33 -13.05,-3.88 -12.00,-2.13 -11.81,-2.01"/>
    </edge>
    <edge id=":J7_5" function="internal">
        <lane id=":J7_5_0" index="0" disallow="pedestrian" speed="13.89" length="20.90" shape="-13.39,-6.33 -13.50,14.57"/>
        <lane id=":J7_5_1" index="1" disallow="pedestrian" speed="13.89" length="20.90" shape="-16.59,-6.34 -16.70,14.55"/>
    </edge>
    <edge id=":J7_7" function="internal">
        <lane id=":J7_7_0" index="0" disallow="pedestrian" speed="9.30" length="5.05" shape="-16.59,-6.34 -17.33,-1.34"/>
    </edge>
    <edge id=":J7_18" function="internal">
        <lane id=":J7_18_0" index="0" disallow="pedestrian" speed="6.51" length="4.28" shape="-11.81,-2.01 -10.26,-1.07 -7.81,-0.71"/>
    </edge>
    <edge id=":J7_19" function="internal">
        <lane id=":J7_19_0" index="0" disallow="pedestrian" speed="9.30" length="14.39" shape="-17.33,-1.34 -17.36,-1.10 -19.64,2.65 -23.42,4.92 -28.71,5.69"/>
    </edge>
    <edge id=":J7_8" function="internal">
        <lane id=":J7_8_0" index="0" disallow="pedestrian" speed="6.57" length="4.88" shape="-28.74,-0.71 -26.23,-1.07 -24.44,-2.14 -24.30,-2.36"/>
    </edge>
    <edge id=":J7_9" function="internal">
        <lane id=":J7_9_0" index="0" disallow="pedestrian" speed="13.89" length="20.91" shape="-28.74,-0.71 -7.81,-0.71"/>
        <lane id=":J7_9_1" index="1" disallow="pedestrian" speed="13.89" length="20.91" shape="-28.73,2.49 -7.83,2.49"/>
    </edge>
    <edge id=":J7_11" function="internal">
        <lane id=":J7_11_0" index="0" disallow="pedestrian" speed="9.25" length="5.17" shape="-28.73,2.49 -23.61,3.20"/>
    </edge>
    <edge id=":J7_20" function="internal">
        <lane id=":J7_20_0" index="0" disallow="pedestrian" speed="6.57" length="4.29" shape="-24.30,-2.36 -23.36,-3.90 -22.99,-6.36"/>
    </edge>
    <edge id=":J7_21" function="internal">
        <lane id=":J7_21_0" index="0" disallow="pedestrian" speed="9.25" length="14.32" shape="-23.61,3.20 -23.43,3.22 -19.66,5.48 -17.41,9.25 -16.70,14.55"/>
    </edge>
    <edge id=":J7_12" function="internal">
        <lane id=":J7_12_0" index="0" disallow="pedestrian" speed="6.49" length="4.79" shape="-23.10,14.50 -23.43,12.04 -24.48,10.28 -24.69,10.15"/>
    </edge>
    <edge id=":J7_13" function="internal">
        <lane id=":J7_13_0" index="0" disallow="pedestrian" speed="13.89" length="20.87" shape="-23.10,14.50 -22.99,-6.36"/>
        <lane id=":J7_13_1" index="1" disallow="pedestrian" speed="13.89" length="20.87" shape="-19.90,14.53 -19.79,-6.35"/>
    </edge>
    <edge id=":J7_15" function="internal">
        <lane id=":J7_15_0" index="0" disallow="pedestrian" speed="9.28" length="4.99" shape="-19.90,14.53 -19.16,9.60"/>
    </edge>
    <edge id=":J7_22" function="internal">
        <lane id=":J7_22_0" index="0" disallow="pedestrian" speed="6.49" length="4.28" shape="-24.69,10.15 -26.23,9.23 -28.70,8.89"/>
    </edge>
    <edge id=":J7_23" function="internal">
        <lane id=":J7_23_0" index="0" disallow="pedestrian" speed="9.28" length="14.44" shape="-19.16,9.60 -19.11,9.24 -16.84,5.47 -13.08,3.22 -7.83,2.49"/>
    </edge>
    <edge id=":J7_c0" function="crossing" crossingEdges="E0.54 -E0">
        <lane id=":J7_c0_0" index="0" allow="pedestrian" speed="2.78" length="12.80" width="4.00" shape="-9.81,-2.32 -9.87,10.48" outlineShape="-7.81,-2.31 -7.87,10.49 -9.09,10.60 -10.09,10.94 -10.87,11.50 -11.44,12.30 -11.53,12.59 -11.87,10.47 -11.81,-2.33 -11.46,-4.44 -11.35,-4.10 -10.80,-3.32 -10.03,-2.77 -9.03,-2.43"/>
    </edge>
    <edge id=":J7_c1" function="crossing" crossingEdges="E1.39 -E1">
        <lane id=":J7_c1_0" index="0" allow="pedestrian" speed="2.78" length="12.80" width="4.00" shape="-24.60,-4.36 -11.80,-4.33" outlineShape="-24.59,-6.36 -11.79,-6.33 -7.81,-2.31 -7.80,-4.31 -9.79,-6.32 -11.79,-6.33 -7.80,-2.31 -28.12,-2.37 -27.48,-2.43 -26.44,-2.77 -25.64,-3.33 -25.06,-4.12 -24.71,-5.13"/>
    </edge>
    <edge id=":J7_c2" function="crossing" crossingEdges="-E00 E3">
        <lane id=":J7_c2_0" index="0" allow="pedestrian" speed="2.78" length="12.80" width="4.00" shape="-26.69,10.48 -26.75,-2.32" outlineShape="-28.69,10.49 -28.75,-2.31 -27.48,-2.43 -26.44,-2.77 -25.64,-3.33 -25.06,-4.12 -24.96,-4.40 -24.75,-2.33 -24.69,10.47 -25.02,12.58 -25.13,12.26 -25.68,11.48 -26.46,10.92 -27.46,10.59"/>
    </edge>
    <edge id=":J7_c3" function="crossing" crossingEdges="-E10 E1">
        <lane id=":J7_c3_0" index="0" allow="pedestrian" speed="2.78" length="12.80" width="4.00" shape="-11.88,12.59 -24.68,12.49" outlineShape="-11.90,14.59 -24.80,14.49 -24.80,13.26 -25.13,12.26 -25.68,11.48 -26.46,10.92 -26.78,10.82 -24.67,10.49 -11.87,10.59 -9.79,10.83 -10.09,10.94 -10.87,11.50 -11.44,12.30 -11.78,13.33"/>
    </edge>
    <edge id=":J7_w0" function="walkingarea">
        <lane id=":J7_w0_0" index="0" allow="pedestrian" speed="2.78" length="3.35" width="4.00" shape="-11.90,14.59 -9.90,14.60 -7.88,12.49 -7.87,10.49 -9.09,10.60 -10.09,10.94 -10.87,11.50 -11.44,12.30 -11.78,13.33"/>
    </edge>
    <edge id=":J7_w1" function="walkingarea">
        <lane id=":J7_w1_0" index="0" allow="pedestrian" speed="2.78" length="3.30" width="4.00" shape="-7.81,-2.31 -7.80,-4.31 -9.79,-6.32 -11.79,-6.33 -11.68,-5.10 -11.35,-4.10 -10.80,-3.32 -10.03,-2.77 -9.03,-2.43"/>
    </edge>
    <edge id=":J7_w2" function="walkingarea">
        <lane id=":J7_w2_0" index="0" allow="pedestrian" speed="2.78" length="3.39" width="4.00" shape="-24.59,-6.36 -26.59,-6.37 -28.76,-4.31 -28.75,-2.31 -27.48,-2.43 -26.44,-2.77 -25.64,-3.33 -25.06,-4.12 -24.71,-5.13"/>
    </edge>
    <edge id=":J7_w3" function="walkingarea">
        <lane id=":J7_w3_0" index="0" allow="pedestrian" speed="2.78" length="3.30" width="4.00" shape="-28.69,10.49 -28.68,12.49 -26.70,14.48 -24.70,14.49 -24.80,13.26 -25.13,12.26 -25.68,11.48 -26.46,10.92 -27.46,10.59"/>
    </edge>

    <edge id="-E0" from="J1" to="J7" priority="-1" shape="42.65,4.33 -18.22,4.04">
        <lane id="-E0_0" index="0" allow="pedestrian" speed="13.89" length="50.49" width="2.00" shape="42.61,11.73 -7.87,11.49"/>
        <lane id="-E0_1" index="1" disallow="pedestrian" speed="13.89" length="50.49" shape="42.63,9.13 -7.86,8.89"/>
        <lane id="-E0_2" index="2" disallow="pedestrian" speed="13.89" length="50.49" shape="42.64,5.93 -7.84,5.69"/>
    </edge>
    <edge id="-E00" from="J7" to="J0" priority="-1" shape="-18.22,4.04 -72.61,4.29">
        <lane id="-E00_0" index="0" allow="pedestrian" speed="13.89" length="43.89" width="2.00" shape="-28.69,11.49 -72.58,11.69"/>
        <lane id="-E00_1" index="1" disallow="pedestrian" speed="13.89" length="43.89" shape="-28.70,8.89 -72.59,9.09"/>
        <lane id="-E00_2" index="2" disallow="pedestrian" speed="13.89" length="43.89" shape="-28.71,5.69 -72.60,5.89"/>
    </edge>
    <edge id="-E1" from="J3" to="J7" priority="-1" shape="-18.09,-43.50 -18.22,4.04">
        <lane id="-E1_0" index="0" allow="pedestrian" speed="13.89" length="37.16" width="2.00" shape="-10.69,-43.48 -10.79,-6.32"/>
        <lane id="-E1_1" index="1" disallow="pedestrian" speed="13.89" length="37.16" shape="-13.29,-43.49 -13.39,-6.33"/>
        <lane id="-E1_2" index="2" disallow="pedestrian" speed="13.89" length="37.16" shape="-16.49,-43.50 -16.59,-6.34"/>
    </edge>
    <edge id="-E10" from="J7" to="J2" priority="-1" shape="-18.22,4.04 -18.57,52.66">
        <lane id="-E10_0" index="0" allow="pedestrian" speed="13.89" length="38.12" width="2.00" shape="-10.90,14.59 -11.17,52.71"/>
        <lane id="-E10_1" index="1" disallow="pedestrian" speed="13.89" length="38.12" shape="-13.50,14.57 -13.77,52.69"/>
        <lane id="-E10_2" index="2" disallow="pedestrian" speed="13.89" length="38.12" shape="-16.70,14.55 -16.97,52.67"/>
    </edge>
    <edge id="E0.54" from="J7" to="J1" priority="-1" shape="-18.22,4.04 42.65,4.33">
        <lane id="E0.54_0" index="0" allow="pedestrian" speed="13.89" length="50.49" width="2.00" shape="-7.80,-3.31 42.69,-3.07"/>
        <lane id="E0.54_1" index="1" disallow="pedestrian" speed="13.89" length="50.49" shape="-7.81,-0.71 42.67,-0.47"/>
        <lane id="E0.54_2" index="2" disallow="pedestrian" speed="13.89" length="50.49" shape="-7.83,2.49 42.66,2.73"/>
    </edge>
    <edge id="E1" from="J2" to="J7" priority="-1" shape="-18.57,52.66 -18.22,4.04">
        <lane id="E1_0" index="0" allow="pedestrian" speed="13.89" length="38.12" width="2.00" shape="-25.97,52.61 -25.70,14.49"/>
        <lane id="E1_1" index="1" disallow="pedestrian" speed="13.89" length="38.12" shape="-23.37,52.63 -23.10,14.50"/>
        <lane id="E1_2" index="2" disallow="pedestrian" speed="13.89" length="38.12" shape="-20.17,52.65 -19.90,14.53"/>
    </edge>
    <edge id="E1.39" from="J7" to="J3" priority="-1" shape="-18.22,4.04 -18.09,-43.50">
        <lane id="E1.39_0" index="0" allow="pedestrian" speed="13.89" length="37.16" width="2.00" shape="-25.59,-6.36 -25.49,-43.52"/>
        <lane id="E1.39_1" index="1" disallow="pedestrian" speed="13.89" length="37.16" shape="-22.99,-6.36 -22.89,-43.51"/>
        <lane id="E1.39_2" index="2" disallow="pedestrian" speed="13.89" length="37.16" shape="-19.79,-6.35 -19.69,-43.50"/>
    </edge>
    <edge id="E3" from="J0" to="J7" priority="-1" shape="-72.61,4.29 -18.22,4.04">
        <lane id="E3_0" index="0" allow="pedestrian" speed="13.89" length="43.89" width="2.00" shape="-72.64,-3.11 -28.75,-3.31"/>
        <lane id="E3_1" index="1" disallow="pedestrian" speed="13.89" length="43.89" shape="-72.63,-0.51 -28.74,-0.71"/>
        <lane id="E3_2" index="2" disallow="pedestrian" speed="13.89" length="43.89" shape="-72.62,2.69 -28.73,2.49"/>
    </edge>

    <tlLogic id="J7" type="static" programID="0" offset="0">
        <phase duration="37" state="gGGgrrrrgGGgrrrrrGrG"/>
        <phase duration="5"  state="gGGgrrrrgGGgrrrrrrrr"/>
        <phase duration="3"  state="yyyyrrrryyyyrrrrrrrr"/>
        <phase duration="37" state="rrrrgGGgrrrrgGGgGrGr"/>
        <phase duration="5"  state="rrrrgGGgrrrrgGGgrrrr"/>
        <phase duration="3"  state="rrrryyyyrrrryyyyrrrr"/>
    </tlLogic>

    <junction id="J0" type="dead_end" x="-72.61" y="4.29" incLanes="-E00_0 -E00_1 -E00_2" intLanes="" shape="-72.61,4.29 -72.57,12.69 -72.61,4.29"/>
    <junction id="J1" type="dead_end" x="42.65" y="4.33" incLanes="E0.54_0 E0.54_1 E0.54_2" intLanes="" shape="42.65,4.33 42.69,-4.07 42.65,4.33"/>
    <junction id="J2" type="dead_end" x="-18.57" y="52.66" incLanes="-E10_0 -E10_1 -E10_2" intLanes="" shape="-18.57,52.66 -10.17,52.72 -18.57,52.66"/>
    <junction id="J3" type="dead_end" x="-18.09" y="-43.50" incLanes="E1.39_0 E1.39_1 E1.39_2" intLanes="" shape="-18.09,-43.50 -26.49,-43.52 -18.09,-43.50"/>
    <junction id="J7" type="traffic_light" x="-18.42" y="4.04" incLanes="-E0_0 -E0_1 -E0_2 -E1_0 -E1_1 -E1_2 E3_0 E3_1 E3_2 E1_0 E1_1 E1_2 :J7_w1_0 :J7_w2_0 :J7_w3_0 :J7_w0_0" intLanes=":J7_16_0 :J7_1_0 :J7_1_1 :J7_17_0 :J7_18_0 :J7_5_0 :J7_5_1 :J7_19_0 :J7_20_0 :J7_9_0 :J7_9_1 :J7_21_0 :J7_22_0 :J7_13_0 :J7_13_1 :J7_23_0 :J7_c0_0 :J7_c1_0 :J7_c2_0 :J7_c3_0" shape="-7.88,12.49 -7.80,-4.31 -8.91,-4.54 -9.30,-4.82 -9.57,-5.21 -9.74,-5.71 -9.79,-6.32 -26.59,-6.37 -26.83,-5.23 -27.14,-4.83 -27.56,-4.54 -28.10,-4.37 -28.76,-4.31 -28.68,12.49 -27.57,12.71 -27.18,12.98 -26.91,13.37 -26.75,13.87 -26.70,14.48 -9.90,14.60 -9.66,13.42 -9.38,13.01 -8.99,12.72 -8.49,12.55">
        <request index="0"  response="10010000000001100000" foes="10010000000001100000" cont="1"/>
        <request index="1"  response="01011111000011100000" foes="01011111100011100000" cont="0"/>
        <request index="2"  response="01011111000011100000" foes="01011111100011100000" cont="0"/>
        <request index="3"  response="00111110011011100000" foes="00111110011011100000" cont="1"/>
        <request index="4"  response="00110000000000000000" foes="00110000011000000000" cont="1"/>
        <request index="5"  response="10100000000000001001" foes="10101000111000001111" cont="0"/>
        <request index="6"  response="10100000100000001000" foes="10101000111000001111" cont="0"/>
        <request index="7"  response="01100110100000001000" foes="01100110111000001110" cont="1"/>
        <request index="8"  response="01100110000000000000" foes="01100110000000000000" cont="1"/>
        <request index="9"  response="01011110000011110000" foes="01011110000011111000" cont="0"/>
        <request index="10" response="01011110000011110000" foes="01011110000011111000" cont="0"/>
        <request index="11" response="11001110000011100110" foes="11001110000011100110" cont="1"/>
        <request index="12" response="11000000000000000000" foes="11000000000000000110" cont="1"/>
        <request index="13" response="10100000100100000000" foes="10100000111110001110" cont="0"/>
        <request index="14" response="10100000100000001000" foes="10100000111110001110" cont="0"/>
        <request index="15" response="10010000100001101000" foes="10010000111001101110" cont="1"/>
        <request index="16" response="00000000000000000000" foes="00001000011000011111" cont="0"/>
        <request index="17" response="00000000000000000000" foes="00000110000111111000" cont="0"/>
        <request index="18" response="00000000000000000000" foes="00000001111110000110" cont="0"/>
        <request index="19" response="00000000000000000000" foes="00001111100001100001" cont="0"/>
    </junction>

    <junction id=":J7_16_0" type="internal" x="-12.24" y="10.58" incLanes=":J7_0_0" intLanes=":J7_5_0 :J7_5_1 :J7_11_0 :J7_c0_0 :J7_c3_0"/>
    <junction id=":J7_17_0" type="internal" x="-12.65" y="4.98" incLanes=":J7_3_0 E3_1 E3_2" intLanes=":J7_5_0 :J7_5_1 :J7_7_0 :J7_8_0 :J7_9_0 :J7_9_1 :J7_13_0 :J7_13_1 :J7_15_0 :J7_c0_0 :J7_c1_0"/>
    <junction id=":J7_18_0" type="internal" x="-11.81" y="-2.01" incLanes=":J7_4_0" intLanes=":J7_9_0 :J7_9_1 :J7_15_0 :J7_c0_0 :J7_c1_0"/>
    <junction id=":J7_19_0" type="internal" x="-17.33" y="-1.34" incLanes=":J7_7_0 E1_1 E1_2" intLanes=":J7_1_0 :J7_1_1 :J7_3_0 :J7_9_0 :J7_9_1 :J7_11_0 :J7_12_0 :J7_13_0 :J7_13_1 :J7_c1_0 :J7_c2_0"/>
    <junction id=":J7_20_0" type="internal" x="-24.30" y="-2.36" incLanes=":J7_8_0" intLanes=":J7_3_0 :J7_13_0 :J7_13_1 :J7_c1_0 :J7_c2_0"/>
    <junction id=":J7_21_0" type="internal" x="-23.61" y="3.20" incLanes=":J7_11_0 -E0_1 -E0_2" intLanes=":J7_0_0 :J7_1_0 :J7_1_1 :J7_5_0 :J7_5_1 :J7_7_0 :J7_13_0 :J7_13_1 :J7_15_0 :J7_c2_0 :J7_c3_0"/>
    <junction id=":J7_22_0" type="internal" x="-24.69" y="10.15" incLanes=":J7_12_0" intLanes=":J7_1_0 :J7_1_1 :J7_7_0 :J7_c2_0 :J7_c3_0"/>
    <junction id=":J7_23_0" type="internal" x="-19.16" y="9.60" incLanes=":J7_15_0 -E1_1 -E1_2" intLanes=":J7_1_0 :J7_1_1 :J7_3_0 :J7_4_0 :J7_5_0 :J7_5_1 :J7_9_0 :J7_9_1 :J7_11_0 :J7_c0_0 :J7_c3_0"/>

    <connection from="-E0" to="-E10" fromLane="1" toLane="1" via=":J7_0_0" tl="J7" linkIndex="4" dir="r" state="o"/>
    <connection from="-E0" to="-E00" fromLane="1" toLane="1" via=":J7_1_0" tl="J7" linkIndex="5" dir="s" state="o"/>
    <connection from="-E0" to="-E00" fromLane="2" toLane="2" via=":J7_1_1" tl="J7" linkIndex="6" dir="s" state="o"/>
    <connection from="-E0" to="E1.39" fromLane="2" toLane="2" via=":J7_3_0" tl="J7" linkIndex="7" dir="l" state="o"/>
    <connection from="-E1" to="E0.54" fromLane="1" toLane="1" via=":J7_4_0" tl="J7" linkIndex="8" dir="r" state="o"/>
    <connection from="-E1" to="-E10" fromLane="1" toLane="1" via=":J7_5_0" tl="J7" linkIndex="9" dir="s" state="o"/>
    <connection from="-E1" to="-E10" fromLane="2" toLane="2" via=":J7_5_1" tl="J7" linkIndex="10" dir="s" state="o"/>
    <connection from="-E1" to="-E00" fromLane="2" toLane="2" via=":J7_7_0" tl="J7" linkIndex="11" dir="l" state="o"/>
    <connection from="E1" to="-E00" fromLane="1" toLane="1" via=":J7_12_0" tl="J7" linkIndex="0" dir="r" state="o"/>
    <connection from="E1" to="E1.39" fromLane="1" toLane="1" via=":J7_13_0" tl="J7" linkIndex="1" dir="s" state="o"/>
    <connection from="E1" to="E1.39" fromLane="2" toLane="2" via=":J7_13_1" tl="J7" linkIndex="2" dir="s" state="o"/>
    <connection from="E1" to="E0.54" fromLane="2" toLane="2" via=":J7_15_0" tl="J7" linkIndex="3" dir="l" state="o"/>
    <connection from="E3" to="E1.39" fromLane="1" toLane="1" via=":J7_8_0" tl="J7" linkIndex="12" dir="r" state="o"/>
    <connection from="E3" to="E0.54" fromLane="1" toLane="1" via=":J7_9_0" tl="J7" linkIndex="13" dir="s" state="o"/>
    <connection from="E3" to="E0.54" fromLane="2" toLane="2" via=":J7_9_1" tl="J7" linkIndex="14" dir="s" state="o"/>
    <connection from="E3" to="-E10" fromLane="2" toLane="2" via=":J7_11_0" tl="J7" linkIndex="15" dir="l" state="o"/>

    <connection from=":J7_0" to="-E10" fromLane="0" toLane="1" via=":J7_16_0" dir="r" state="m"/>
    <connection from=":J7_16" to="-E10" fromLane="0" toLane="1" dir="r" state="m"/>
    <connection from=":J7_1" to="-E00" fromLane="0" toLane="1" dir="s" state="M"/>
    <connection from=":J7_1" to="-E00" fromLane="1" toLane="2" dir="s" state="M"/>
    <connection from=":J7_3" to="E1.39" fromLane="0" toLane="2" via=":J7_17_0" dir="l" state="m"/>
    <connection from=":J7_17" to="E1.39" fromLane="0" toLane="2" dir="l" state="m"/>
    <connection from=":J7_4" to="E0.54" fromLane="0" toLane="1" via=":J7_18_0" dir="r" state="m"/>
    <connection from=":J7_18" to="E0.54" fromLane="0" toLane="1" dir="r" state="m"/>
    <connection from=":J7_5" to="-E10" fromLane="0" toLane="1" dir="s" state="M"/>
    <connection from=":J7_5" to="-E10" fromLane="1" toLane="2" dir="s" state="M"/>
    <connection from=":J7_7" to="-E00" fromLane="0" toLane="2" via=":J7_19_0" dir="l" state="m"/>
    <connection from=":J7_19" to="-E00" fromLane="0" toLane="2" dir="l" state="m"/>
    <connection from=":J7_8" to="E1.39" fromLane="0" toLane="1" via=":J7_20_0" dir="r" state="m"/>
    <connection from=":J7_20" to="E1.39" fromLane="0" toLane="1" dir="r" state="m"/>
    <connection from=":J7_9" to="E0.54" fromLane="0" toLane="1" dir="s" state="M"/>
    <connection from=":J7_9" to="E0.54" fromLane="1" toLane="2" dir="s" state="M"/>
    <connection from=":J7_11" to="-E10" fromLane="0" toLane="2" via=":J7_21_0" dir="l" state="m"/>
    <connection from=":J7_21" to="-E10" fromLane="0" toLane="2" dir="l" state="m"/>
    <connection from=":J7_12" to="-E00" fromLane="0" toLane="1" via=":J7_22_0" dir="r" state="m"/>
    <connection from=":J7_22" to="-E00" fromLane="0" toLane="1" dir="r" state="m"/>
    <connection from=":J7_13" to="E1.39" fromLane="0" toLane="1" dir="s" state="M"/>
    <connection from=":J7_13" to="E1.39" fromLane="1" toLane="2" dir="s" state="M"/>
    <connection from=":J7_15" to="E0.54" fromLane="0" toLane="2" via=":J7_23_0" dir="l" state="m"/>
    <connection from=":J7_23" to="E0.54" fromLane="0" toLane="2" dir="l" state="m"/>

    <connection from=":J0_w0" to="E3" fromLane="0" toLane="0" dir="s" state="M"/>
    <connection from="-E00" to=":J0_w0" fromLane="0" toLane="0" dir="s" state="M"/>
    <connection from=":J1_w0" to="-E0" fromLane="0" toLane="0" dir="s" state="M"/>
    <connection from="E0.54" to=":J1_w0" fromLane="0" toLane="0" dir="s" state="M"/>
    <connection from=":J2_w0" to="E1" fromLane="0" toLane="0" dir="s" state="M"/>
    <connection from="-E10" to=":J2_w0" fromLane="0" toLane="0" dir="s" state="M"/>
    <connection from=":J3_w0" to="-E1" fromLane="0" toLane="0" dir="s" state="M"/>
    <connection from="E1.39" to=":J3_w0" fromLane="0" toLane="0" dir="s" state="M"/>
    <connection from=":J7_c0" to=":J7_w0" fromLane="0" toLane="0" dir="s" state="M"/>
    <connection from=":J7_c1" to=":J7_w1" fromLane="0" toLane="0" dir="s" state="M"/>
    <connection from=":J7_c2" to=":J7_w2" fromLane="0" toLane="0" dir="s" state="M"/>
    <connection from=":J7_c3" to=":J7_w3" fromLane="0" toLane="0" dir="s" state="M"/>
    <connection from=":J7_w0" to=":J7_c3" fromLane="0" toLane="0" tl="J7" linkIndex="16" dir="s" state="M"/>
    <connection from=":J7_w0" to="-E10" fromLane="0" toLane="0" dir="s" state="M"/>
    <connection from="-E0" to=":J7_w0" fromLane="0" toLane="0" dir="s" state="M"/>
    <connection from=":J7_w1" to=":J7_c0" fromLane="0" toLane="0" tl="J7" linkIndex="17" dir="s" state="M"/>
    <connection from=":J7_w1" to="E0.54" fromLane="0" toLane="0" dir="s" state="M"/>
    <connection from="-E1" to=":J7_w1" fromLane="0" toLane="0" dir="s" state="M"/>
    <connection from=":J7_w2" to=":J7_c1" fromLane="0" toLane="0" tl="J7" linkIndex="18" dir="s" state="M"/>
    <connection from=":J7_w2" to="E1.39" fromLane="0" toLane="0" dir="s" state="M"/>
    <connection from="E3" to=":J7_w2" fromLane="0" toLane="0" dir="s" state="M"/>
    <connection from=":J7_w3" to=":J7_c2" fromLane="0" toLane="0" tl="J7" linkIndex="19" dir="s" state="M"/>
    <connection from=":J7_w3" to="-E00" fromLane="0" toLane="0" dir="s" state="M"/>
    <connection from="E1" to=":J7_w3" fromLane="0" toLane="0" dir="s" state="M"/>
</net>
