<configuration>
    <input>
        <net-file value="train_env.net.xml"/>
        <route-files value="train.rou.xml"/> 
    </input>
    <time>
        <begin value="0"/>
        <end value="3600"/>
    </time>
</configuration>